 xtb: 6.7.1pre (5071a88)
          08312618343D

127118  0     0  0            999 V2000
    4.0452   -2.2279   -1.3429 C   0  0  0  0  0  0  0  0  0  0  0  0
    5.0878   -1.2141   -0.8853 C   0  0  0  0  0  0  0  0  0  0  0  0
    4.6807   -0.3658    0.3398 C   0  0  0  0  0  0  0  0  0  0  0  0
    4.4178   -1.2533    1.4381 O   0  0  0  0  0  0  0  0  0  0  0  0
    5.9009    0.5046    0.7186 C   0  0  0  0  0  0  0  0  0  0  0  0
    6.7422    0.0921    1.5187 O   0  0  0  0  0  0  0  0  0  0  0  0
    6.0543    1.6950    0.0986 O   0  0  0  0  0  0  0  0  0  0  0  0
    4.9844    2.3414   -0.6264 C   0  0  0  0  0  0  0  0  0  0  0  0
    3.6414    1.7539   -0.3720 C   0  0  0  0  0  0  0  0  0  0  0  0
    3.4737    0.5049    0.1023 C   0  0  0  0  0  0  0  0  0  0  0  0
    2.1330   -0.0009    0.3679 C   0  0  0  0  0  0  0  0  0  0  0  0
    1.0784    0.7791    0.1122 C   0  0  0  0  0  0  0  0  0  0  0  0
    1.2428    2.0498   -0.3968 N   0  0  0  0  0  0  0  0  0  0  0  0
    2.4588    2.6215   -0.6729 C   0  0  0  0  0  0  0  0  0  0  0  0
    2.6032    3.7467   -1.1387 O   0  0  0  0  0  0  0  0  0  0  0  0
   -0.0415    2.7163   -0.6050 C   0  0  0  0  0  0  0  0  0  0  0  0
   -1.0328    1.6782   -0.1488 C   0  0  0  0  0  0  0  0  0  0  0  0
   -0.3476    0.5298    0.2779 C   0  0  0  0  0  0  0  0  0  0  0  0
   -1.0285   -0.5731    0.7504 C   0  0  0  0  0  0  0  0  0  0  0  0
   -2.4369   -0.5394    0.7978 C   0  0  0  0  0  0  0  0  0  0  0  0
   -3.1498   -1.7736    1.3357 C   0  0  0  0  0  0  0  0  0  0  0  0
   -3.8679   -2.5430    0.3054 N   0  0  0  0  0  0  0  0  0  0  0  0
   -4.7122   -3.5587    0.9359 C   0  0  0  0  0  0  0  0  0  0  0  0
   -2.9525   -3.1743   -0.6459 C   0  0  0  0  0  0  0  0  0  0  0  0
   -3.1516    0.6254    0.3577 C   0  0  0  0  0  0  0  0  0  0  0  0
   -2.4277    1.7540   -0.1194 C   0  0  0  0  0  0  0  0  0  0  0  0
   -3.1167    2.9081   -0.5465 C   0  0  0  0  0  0  0  0  0  0  0  0
   -4.5087    2.9693   -0.5128 C   0  0  0  0  0  0  0  0  0  0  0  0
   -5.2195    1.8730   -0.0541 C   0  0  0  0  0  0  0  0  0  0  0  0
   -4.5613    0.7220    0.3716 C   0  0  0  0  0  0  0  0  0  0  0  0
   -6.5825    1.8823   -0.0028 O   0  0  0  0  0  0  0  0  0  0  0  0
    3.1494   -1.7347   -1.7308 H   0  0  0  0  0  0  0  0  0  0  0  0
    3.7522   -2.8979   -0.5290 H   0  0  0  0  0  0  0  0  0  0  0  0
    4.4550   -2.8433   -2.1506 H   0  0  0  0  0  0  0  0  0  0  0  0
    5.9993   -1.7758   -0.6394 H   0  0  0  0  0  0  0  0  0  0  0  0
    5.3462   -0.5647   -1.7315 H   0  0  0  0  0  0  0  0  0  0  0  0
    5.2862   -1.4335    1.8539 H   0  0  0  0  0  0  0  0  0  0  0  0
    5.0115    3.3907   -0.3144 H   0  0  0  0  0  0  0  0  0  0  0  0
    5.2301    2.3011   -1.6928 H   0  0  0  0  0  0  0  0  0  0  0  0
    2.0170   -1.0007    0.7743 H   0  0  0  0  0  0  0  0  0  0  0  0
   -0.0762    3.6231    0.0068 H   0  0  0  0  0  0  0  0  0  0  0  0
   -0.1499    2.9578   -1.6669 H   0  0  0  0  0  0  0  0  0  0  0  0
   -0.4852   -1.4541    1.0782 H   0  0  0  0  0  0  0  0  0  0  0  0
   -2.4362   -2.4201    1.8655 H   0  0  0  0  0  0  0  0  0  0  0  0
   -3.8480   -1.4284    2.1104 H   0  0  0  0  0  0  0  0  0  0  0  0
   -5.4432   -3.0915    1.6053 H   0  0  0  0  0  0  0  0  0  0  0  0
   -4.1266   -4.2826    1.5142 H   0  0  0  0  0  0  0  0  0  0  0  0
   -5.2881   -4.1050    0.1805 H   0  0  0  0  0  0  0  0  0  0  0  0
   -3.5119   -3.7533   -1.3898 H   0  0  0  0  0  0  0  0  0  0  0  0
   -2.2431   -3.8483   -0.1521 H   0  0  0  0  0  0  0  0  0  0  0  0
   -2.3865   -2.4263   -1.2105 H   0  0  0  0  0  0  0  0  0  0  0  0
   -2.5737    3.7766   -0.9119 H   0  0  0  0  0  0  0  0  0  0  0  0
   -5.0117    3.8709   -0.8465 H   0  0  0  0  0  0  0  0  0  0  0  0
   -5.1721   -0.1123    0.7073 H   0  0  0  0  0  0  0  0  0  0  0  0
   -6.9019    2.7290   -0.3544 H   0  0  0  0  0  0  0  0  0  0  0  0
    2.1012    0.0000    3.3450 B   0  0  0  0  0  0  0  0  0  0  0  0
   -2.1012    0.0000    3.3450 B   0  0  0  0  0  0  0  0  0  0  0  0
    0.0000    2.1012    3.3450 B   0  0  0  0  0  0  0  0  0  0  0  0
    0.0000   -2.1012    3.3450 B   0  0  0  0  0  0  0  0  0  0  0  0
    3.3450    2.1012    0.0000 B   0  0  0  0  0  0  0  0  0  0  0  0
    3.3450   -2.1012    0.0000 B   0  0  0  0  0  0  0  0  0  0  0  0
    3.3450    0.0000    2.1012 B   0  0  0  0  0  0  0  0  0  0  0  0
    3.3450    0.0000   -2.1012 B   0  0  0  0  0  0  0  0  0  0  0  0
   -3.3450    2.1012    0.0000 B   0  0  0  0  0  0  0  0  0  0  0  0
   -3.3450   -2.1012    0.0000 B   0  0  0  0  0  0  0  0  0  0  0  0
   -3.3450    0.0000    2.1012 B   0  0  0  0  0  0  0  0  0  0  0  0
   -3.3450    0.0000   -2.1012 B   0  0  0  0  0  0  0  0  0  0  0  0
    2.1012    0.0000   -3.3450 B   0  0  0  0  0  0  0  0  0  0  0  0
   -2.1012    0.0000   -3.3450 B   0  0  0  0  0  0  0  0  0  0  0  0
    0.0000    2.1012   -3.3450 B   0  0  0  0  0  0  0  0  0  0  0  0
    0.0000   -2.1012   -3.3450 B   0  0  0  0  0  0  0  0  0  0  0  0
    0.0000    3.3450    2.1012 B   0  0  0  0  0  0  0  0  0  0  0  0
    0.0000    3.3450   -2.1012 B   0  0  0  0  0  0  0  0  0  0  0  0
    0.0000   -3.3450    2.1012 B   0  0  0  0  0  0  0  0  0  0  0  0
    0.0000   -3.3450   -2.1012 B   0  0  0  0  0  0  0  0  0  0  0  0
    2.1012    3.3450    0.0000 B   0  0  0  0  0  0  0  0  0  0  0  0
   -2.1012    3.3450    0.0000 B   0  0  0  0  0  0  0  0  0  0  0  0
    2.1012   -3.3450    0.0000 B   0  0  0  0  0  0  0  0  0  0  0  0
   -2.1012   -3.3450    0.0000 B   0  0  0  0  0  0  0  0  0  0  0  0
    1.4800    1.4800    3.5800 B   0  0  0  0  0  0  0  0  0  0  0  0
   -1.4800    1.4800    3.5800 B   0  0  0  0  0  0  0  0  0  0  0  0
    1.4800   -1.4800    3.5800 B   0  0  0  0  0  0  0  0  0  0  0  0
   -1.4800   -1.4800    3.5800 B   0  0  0  0  0  0  0  0  0  0  0  0
    3.5800    1.4800    1.4800 B   0  0  0  0  0  0  0  0  0  0  0  0
    3.5800   -1.4800    1.4800 B   0  0  0  0  0  0  0  0  0  0  0  0
    3.5800    1.4800   -1.4800 B   0  0  0  0  0  0  0  0  0  0  0  0
    3.5800   -1.4800   -1.4800 B   0  0  0  0  0  0  0  0  0  0  0  0
   -3.5800    1.4800    1.4800 B   0  0  0  0  0  0  0  0  0  0  0  0
   -3.5800   -1.4800    1.4800 B   0  0  0  0  0  0  0  0  0  0  0  0
   -3.5800    1.4800   -1.4800 B   0  0  0  0  0  0  0  0  0  0  0  0
   -3.5800   -1.4800   -1.4800 B   0  0  0  0  0  0  0  0  0  0  0  0
    2.1012    0.0000    3.9200 N   0  0  0  0  0  0  0  0  0  0  0  0
   -2.1012    0.0000    3.9200 N   0  0  0  0  0  0  0  0  0  0  0  0
    0.0000    2.1012    3.9200 N   0  0  0  0  0  0  0  0  0  0  0  0
    0.0000   -2.1012    3.9200 N   0  0  0  0  0  0  0  0  0  0  0  0
    3.9200    2.1012    0.0000 N   0  0  0  0  0  0  0  0  0  0  0  0
    3.9200   -2.1012    0.0000 N   0  0  0  0  0  0  0  0  0  0  0  0
    3.9200    0.0000    2.1012 N   0  0  0  0  0  0  0  0  0  0  0  0
    3.9200    0.0000   -2.1012 N   0  0  0  0  0  0  0  0  0  0  0  0
   -3.9200    2.1012    0.0000 N   0  0  0  0  0  0  0  0  0  0  0  0
   -3.9200   -2.1012    0.0000 N   0  0  0  0  0  0  0  0  0  0  0  0
   -3.9200    0.0000    2.1012 N   0  0  0  0  0  0  0  0  0  0  0  0
   -3.9200    0.0000   -2.1012 N   0  0  0  0  0  0  0  0  0  0  0  0
    2.1012    0.0000   -3.9200 N   0  0  0  0  0  0  0  0  0  0  0  0
   -2.1012    0.0000   -3.9200 N   0  0  0  0  0  0  0  0  0  0  0  0
    0.0000    2.1012   -3.9200 N   0  0  0  0  0  0  0  0  0  0  0  0
    0.0000   -2.1012   -3.9200 N   0  0  0  0  0  0  0  0  0  0  0  0
    0.0000    3.9200    2.1012 N   0  0  0  0  0  0  0  0  0  0  0  0
    0.0000    3.9200   -2.1012 N   0  0  0  0  0  0  0  0  0  0  0  0
    0.0000   -3.9200    2.1012 N   0  0  0  0  0  0  0  0  0  0  0  0
    0.0000   -3.9200   -2.1012 N   0  0  0  0  0  0  0  0  0  0  0  0
    2.1012    3.9200    0.0000 N   0  0  0  0  0  0  0  0  0  0  0  0
   -2.1012    3.9200    0.0000 N   0  0  0  0  0  0  0  0  0  0  0  0
    2.1012   -3.9200    0.0000 N   0  0  0  0  0  0  0  0  0  0  0  0
   -2.1012   -3.9200    0.0000 N   0  0  0  0  0  0  0  0  0  0  0  0
    1.4800    1.4800    4.2200 N   0  0  0  0  0  0  0  0  0  0  0  0
   -1.4800    1.4800    4.2200 N   0  0  0  0  0  0  0  0  0  0  0  0
    1.4800   -1.4800    4.2200 N   0  0  0  0  0  0  0  0  0  0  0  0
   -1.4800   -1.4800    4.2200 N   0  0  0  0  0  0  0  0  0  0  0  0
    4.2200    1.4800    1.4800 N   0  0  0  0  0  0  0  0  0  0  0  0
    4.2200   -1.4800    1.4800 N   0  0  0  0  0  0  0  0  0  0  0  0
    4.2200    1.4800   -1.4800 N   0  0  0  0  0  0  0  0  0  0  0  0
    4.2200   -1.4800   -1.4800 N   0  0  0  0  0  0  0  0  0  0  0  0
   -4.2200    1.4800    1.4800 N   0  0  0  0  0  0  0  0  0  0  0  0
   -4.2200   -1.4800    1.4800 N   0  0  0  0  0  0  0  0  0  0  0  0
   -4.2200    1.4800   -1.4800 N   0  0  0  0  0  0  0  0  0  0  0  0
   -4.2200   -1.4800   -1.4800 N   0  0  0  0  0  0  0  0  0  0  0  0
  2  3  1  0  0  0  0
  3  5  1  0  0  0  0
  5  6  4  0  0  0  0
  5  7  1  0  0  0  0
  7  8  1  0  0  0  0
  3 10  1  0  0  0  0
  9 10  1  0  0  0  0
 10 11  1  0  0  0  0
 11 12  4  0  0  0  0
 12 13  1  0  0  0  0
 13 14  1  0  0  0  0
 14 15  1  0  0  0  0
 13 16  1  0  0  0  0
 16 17  1  0  0  0  0
 12 18  1  0  0  0  0
 17 18  1  0  0  0  0
 18 19  4  0  0  0  0
 19 20  1  0  0  0  0
 20 21  1  0  0  0  0
 22 23  1  0  0  0  0
 20 25  1  0  0  0  0
 17 26  1  0  0  0  0
 25 26  1  0  0  0  0
 26 27  1  0  0  0  0
 27 28  1  0  0  0  0
 28 29  1  0  0  0  0
 25 30  1  0  0  0  0
 29 30  1  0  0  0  0
 29 31  1  0  0  0  0
  1 33  1  0  0  0  0
  1 34  1  0  0  0  0
  2 35  1  0  0  0  0
  2 36  1  0  0  0  0
  8 38  1  0  0  0  0
  8 39  1  0  0  0  0
 11 40  1  0  0  0  0
 16 41  1  0  0  0  0
 16 42  1  0  0  0  0
 19 43  1  0  0  0  0
 21 44  1  0  0  0  0
 23 46  1  0  0  0  0
 23 47  1  0  0  0  0
 23 48  1  0  0  0  0
 24 49  1  0  0  0  0
 24 51  1  0  0  0  0
 27 52  1  0  0  0  0
 28 53  1  0  0  0  0
 30 54  1  0  0  0  0
 31 55  1  0  0  0  0
  9 60  1  0  0  0  0
 14 60  1  0  0  0  0
 26 64  1  0  0  0  0
 27 64  1  0  0  0  0
 21 65  1  0  0  0  0
 22 65  1  0  0  0  0
 24 65  1  0  0  0  0
 14 76  1  0  0  0  0
 24 79  1  0  0  0  0
  3 85  1  0  0  0  0
 61 85  1  0  0  0  0
  1 87  1  0  0  0  0
 32 87  1  0  0  0  0
 25 88  1  0  0  0  0
 21 89  2  0  0  0  0
 56 92  3  0  0  0  0
 57 93  3  0  0  0  0
 58 94  3  0  0  0  0
 59 95  3  0  0  0  0
  8 96  1  0  0  0  0
  9 96  2  0  0  0  0
 60 96  1  0  0  0  0
  1 97  1  0  0  0  0
 61 97  2  0  0  0  0
 62 98  3  0  0  0  0
 63 99  3  0  0  0  0
 27100  1  0  0  0  0
 28100  1  0  0  0  0
 29100  1  0  0  0  0
 64100  2  0  0  0  0
 22101  3  0  0  0  0
 65101  1  0  0  0  0
 66102  3  0  0  0  0
 67103  3  0  0  0  0
 68104  3  0  0  0  0
 69105  3  0  0  0  0
 70106  3  0  0  0  0
 71107  3  0  0  0  0
 72108  3  0  0  0  0
 73109  3  0  0  0  0
 74110  3  0  0  0  0
 75111  3  0  0  0  0
 15112  1  0  0  0  0
 76112  2  0  0  0  0
 77113  3  0  0  0  0
 78114  3  0  0  0  0
 24115  1  0  0  0  0
 50115  1  0  0  0  0
 79115  2  0  0  0  0
 80116  3  0  0  0  0
 81117  3  0  0  0  0
 82118  3  0  0  0  0
 83119  3  0  0  0  0
 84120  3  0  0  0  0
  4121  3  0  0  0  0
 85121  1  0  0  0  0
  8122  1  0  0  0  0
  9122  1  0  0  0  0
 86122  2  0  0  0  0
  1123  4  0  0  0  0
  2123  1  0  0  0  0
 87123  2  0  0  0  0
 30124  1  0  0  0  0
 88124  2  0  0  0  0
 21125  1  0  0  0  0
 45125  1  0  0  0  0
 89125  2  0  0  0  0
 90126  3  0  0  0  0
 91127  3  0  0  0  0
M  END
