 xtb: 6.7.1pre (5071a88)
          08312621133D

127167  0     0  0            999 V2000
    4.0452   -2.2279    9.2472 C   0  0  0  0  0  0  0  0  0  0  0  0
    5.0878   -1.2141    9.7048 C   0  0  0  0  0  0  0  0  0  0  0  0
    4.6807   -0.3658   10.9299 C   0  0  0  0  0  0  0  0  0  0  0  0
    4.4178   -1.2533   12.0282 O   0  0  0  0  0  0  0  0  0  0  0  0
    5.9009    0.5046   11.3087 C   0  0  0  0  0  0  0  0  0  0  0  0
    6.7422    0.0921   12.1088 O   0  0  0  0  0  0  0  0  0  0  0  0
    6.0543    1.6950   10.6887 O   0  0  0  0  0  0  0  0  0  0  0  0
    4.9844    2.3414    9.9637 C   0  0  0  0  0  0  0  0  0  0  0  0
    3.6414    1.7539   10.2181 C   0  0  0  0  0  0  0  0  0  0  0  0
    3.4737    0.5049   10.6924 C   0  0  0  0  0  0  0  0  0  0  0  0
    2.1330   -0.0009   10.9580 C   0  0  0  0  0  0  0  0  0  0  0  0
    1.0784    0.7791   10.7023 C   0  0  0  0  0  0  0  0  0  0  0  0
    1.2428    2.0498   10.1933 N   0  0  0  0  0  0  0  0  0  0  0  0
    2.4588    2.6215    9.9172 C   0  0  0  0  0  0  0  0  0  0  0  0
    2.6032    3.7467    9.4514 O   0  0  0  0  0  0  0  0  0  0  0  0
   -0.0415    2.7163    9.9851 C   0  0  0  0  0  0  0  0  0  0  0  0
   -1.0328    1.6782   10.4413 C   0  0  0  0  0  0  0  0  0  0  0  0
   -0.3476    0.5298   10.8680 C   0  0  0  0  0  0  0  0  0  0  0  0
   -1.0285   -0.5731   11.3405 C   0  0  0  0  0  0  0  0  0  0  0  0
   -2.4369   -0.5394   11.3879 C   0  0  0  0  0  0  0  0  0  0  0  0
   -3.1498   -1.7736   11.9258 C   0  0  0  0  0  0  0  0  0  0  0  0
   -3.8679   -2.5430   10.8955 N   0  0  0  0  0  0  0  0  0  0  0  0
   -4.7122   -3.5587   11.5260 C   0  0  0  0  0  0  0  0  0  0  0  0
   -2.9525   -3.1743    9.9442 C   0  0  0  0  0  0  0  0  0  0  0  0
   -3.1516    0.6254   10.9478 C   0  0  0  0  0  0  0  0  0  0  0  0
   -2.4277    1.7540   10.4707 C   0  0  0  0  0  0  0  0  0  0  0  0
   -3.1167    2.9081   10.0436 C   0  0  0  0  0  0  0  0  0  0  0  0
   -4.5087    2.9693   10.0773 C   0  0  0  0  0  0  0  0  0  0  0  0
   -5.2195    1.8730   10.5360 C   0  0  0  0  0  0  0  0  0  0  0  0
   -4.5613    0.7220   10.9617 C   0  0  0  0  0  0  0  0  0  0  0  0
   -6.5825    1.8823   10.5873 O   0  0  0  0  0  0  0  0  0  0  0  0
    3.1494   -1.7347    8.8593 H   0  0  0  0  0  0  0  0  0  0  0  0
    3.7522   -2.8979   10.0611 H   0  0  0  0  0  0  0  0  0  0  0  0
    4.4550   -2.8433    8.4395 H   0  0  0  0  0  0  0  0  0  0  0  0
    5.9993   -1.7758    9.9507 H   0  0  0  0  0  0  0  0  0  0  0  0
    5.3462   -0.5647    8.8586 H   0  0  0  0  0  0  0  0  0  0  0  0
    5.2862   -1.4335   12.4440 H   0  0  0  0  0  0  0  0  0  0  0  0
    5.0115    3.3907   10.2757 H   0  0  0  0  0  0  0  0  0  0  0  0
    5.2301    2.3011    8.8973 H   0  0  0  0  0  0  0  0  0  0  0  0
    2.0170   -1.0007   11.3644 H   0  0  0  0  0  0  0  0  0  0  0  0
   -0.0762    3.6231   10.5969 H   0  0  0  0  0  0  0  0  0  0  0  0
   -0.1499    2.9578    8.9231 H   0  0  0  0  0  0  0  0  0  0  0  0
   -0.4852   -1.4541   11.6682 H   0  0  0  0  0  0  0  0  0  0  0  0
   -2.4362   -2.4201   12.4556 H   0  0  0  0  0  0  0  0  0  0  0  0
   -3.8480   -1.4284   12.7005 H   0  0  0  0  0  0  0  0  0  0  0  0
   -5.4432   -3.0915   12.1954 H   0  0  0  0  0  0  0  0  0  0  0  0
   -4.1266   -4.2826   12.1043 H   0  0  0  0  0  0  0  0  0  0  0  0
   -5.2881   -4.1050   10.7706 H   0  0  0  0  0  0  0  0  0  0  0  0
   -3.5119   -3.7533    9.2003 H   0  0  0  0  0  0  0  0  0  0  0  0
   -2.2431   -3.8483   10.4380 H   0  0  0  0  0  0  0  0  0  0  0  0
   -2.3865   -2.4263    9.3796 H   0  0  0  0  0  0  0  0  0  0  0  0
   -2.5737    3.7766    9.6782 H   0  0  0  0  0  0  0  0  0  0  0  0
   -5.0117    3.8709    9.7436 H   0  0  0  0  0  0  0  0  0  0  0  0
   -5.1721   -0.1123   11.2974 H   0  0  0  0  0  0  0  0  0  0  0  0
   -6.9019    2.7290   10.2357 H   0  0  0  0  0  0  0  0  0  0  0  0
    3.4592   -1.4546    1.6280 B   0  0  0  0  0  0  0  0  0  0  0  0
    3.4564    1.1299    0.9400 N   0  0  0  0  0  0  0  0  0  0  0  0
    2.5399    2.3625   -1.2610 B   0  0  0  0  0  0  0  0  0  0  0  0
    2.2931   -0.6416   -2.7306 N   0  0  0  0  0  0  0  0  0  0  0  0
    0.6905   -3.5611    2.7027 B   0  0  0  0  0  0  0  0  0  0  0  0
   -2.9397   -2.6548    1.7095 N   0  0  0  0  0  0  0  0  0  0  0  0
   -1.0382    4.0851    1.8312 B   0  0  0  0  0  0  0  0  0  0  0  0
   -0.6193    0.0177   -3.9419 N   0  0  0  0  0  0  0  0  0  0  0  0
   -0.4737    1.4453   -4.0917 B   0  0  0  0  0  0  0  0  0  0  0  0
    1.2096   -3.7868   -1.7394 N   0  0  0  0  0  0  0  0  0  0  0  0
   -3.8445    2.2094   -0.4937 B   0  0  0  0  0  0  0  0  0  0  0  0
   -2.7729    2.7636   -1.2118 N   0  0  0  0  0  0  0  0  0  0  0  0
    1.4057    0.8181   -4.8893 B   0  0  0  0  0  0  0  0  0  0  0  0
   -0.2358    3.3642    2.8335 N   0  0  0  0  0  0  0  0  0  0  0  0
    0.8983   -2.8798   -2.8138 B   0  0  0  0  0  0  0  0  0  0  0  0
   -0.4918    3.7666   -1.0101 N   0  0  0  0  0  0  0  0  0  0  0  0
   -0.8060    2.1823    3.2819 B   0  0  0  0  0  0  0  0  0  0  0  0
    1.6561   -1.2744    3.5036 N   0  0  0  0  0  0  0  0  0  0  0  0
   -0.2485    3.4699   -2.3799 B   0  0  0  0  0  0  0  0  0  0  0  0
    1.3087    0.0689    3.8170 N   0  0  0  0  0  0  0  0  0  0  0  0
   -1.5974   -0.5599   -3.0847 B   0  0  0  0  0  0  0  0  0  0  0  0
   -3.8325    1.7768    0.8316 N   0  0  0  0  0  0  0  0  0  0  0  0
    0.3376    4.4960    1.1839 B   0  0  0  0  0  0  0  0  0  0  0  0
    0.0433   -0.0140    4.4567 N   0  0  0  0  0  0  0  0  0  0  0  0
   -2.7088    2.2268    1.6012 B   0  0  0  0  0  0  0  0  0  0  0  0
    3.7727   -0.1326   -0.7655 N   0  0  0  0  0  0  0  0  0  0  0  0
   -2.2534   -3.6394    1.0085 B   0  0  0  0  0  0  0  0  0  0  0  0
    1.0558    3.7334    2.2357 N   0  0  0  0  0  0  0  0  0  0  0  0
   -1.8256   -0.7775    3.2198 B   0  0  0  0  0  0  0  0  0  0  0  0
   -2.4368   -3.6019   -0.4508 N   0  0  0  0  0  0  0  0  0  0  0  0
    3.0187   -1.0737   -1.5028 B   0  0  0  0  0  0  0  0  0  0  0  0
   -3.1580   -1.2526   -0.3843 N   0  0  0  0  0  0  0  0  0  0  0  0
    2.0347    2.9223    1.5617 B   0  0  0  0  0  0  0  0  0  0  0  0
   -0.5074   -2.9001   -2.4328 N   0  0  0  0  0  0  0  0  0  0  0  0
   -1.6735   -2.1129   -2.4916 B   0  0  0  0  0  0  0  0  0  0  0  0
    0.5901    3.9646   -0.1102 N   0  0  0  0  0  0  0  0  0  0  0  0
    1.0903    2.9596   -3.1825 B   0  0  0  0  0  0  0  0  0  0  0  0
    0.0774   -4.3592    1.7213 N   0  0  0  0  0  0  0  0  0  0  0  0
   -1.7840    3.4524   -0.4082 B   0  0  0  0  0  0  0  0  0  0  0  0
   -2.0135    3.4185    1.0316 N   0  0  0  0  0  0  0  0  0  0  0  0
    1.4659   -4.2121    1.4991 B   0  0  0  0  0  0  0  0  0  0  0  0
   -0.7980    1.0642    4.1946 N   0  0  0  0  0  0  0  0  0  0  0  0
   -2.6662   -2.4021   -1.1753 B   0  0  0  0  0  0  0  0  0  0  0  0
   -1.0744   -4.4843    0.9912 N   0  0  0  0  0  0  0  0  0  0  0  0
   -2.5037    0.4914   -2.1091 B   0  0  0  0  0  0  0  0  0  0  0  0
    2.3527   -3.8873    0.4531 N   0  0  0  0  0  0  0  0  0  0  0  0
    3.9123   -0.2024    0.7259 B   0  0  0  0  0  0  0  0  0  0  0  0
    1.9285    1.9570   -2.4651 N   0  0  0  0  0  0  0  0  0  0  0  0
    1.0012    2.2544   -4.6225 B   0  0  0  0  0  0  0  0  0  0  0  0
   -4.1860    0.8290   -0.3475 N   0  0  0  0  0  0  0  0  0  0  0  0
   -1.3389    2.4537   -3.1149 B   0  0  0  0  0  0  0  0  0  0  0  0
   -2.3596    1.9326   -2.3058 N   0  0  0  0  0  0  0  0  0  0  0  0
    3.0731   -2.6455    0.6011 B   0  0  0  0  0  0  0  0  0  0  0  0
    2.3352   -3.6737   -0.9709 N   0  0  0  0  0  0  0  0  0  0  0  0
    2.2179    0.5458    2.8084 B   0  0  0  0  0  0  0  0  0  0  0  0
   -2.0264    0.6119    3.6015 N   0  0  0  0  0  0  0  0  0  0  0  0
   -1.1017   -4.1838   -0.4410 B   0  0  0  0  0  0  0  0  0  0  0  0
   -3.2181    0.0417   -0.9586 N   0  0  0  0  0  0  0  0  0  0  0  0
    3.4478    1.2586   -0.5141 B   0  0  0  0  0  0  0  0  0  0  0  0
    2.5821    1.6330    1.9365 N   0  0  0  0  0  0  0  0  0  0  0  0
    1.4721   -1.5550   -3.5156 B   0  0  0  0  0  0  0  0  0  0  0  0
   -2.1026    1.7542    2.7608 N   0  0  0  0  0  0  0  0  0  0  0  0
    2.0408    0.7119   -3.2115 B   0  0  0  0  0  0  0  0  0  0  0  0
   -2.7209   -1.3417    2.3206 N   0  0  0  0  0  0  0  0  0  0  0  0
    0.6586   -0.5389   -4.4869 B   0  0  0  0  0  0  0  0  0  0  0  0
   -0.1687   -3.7594   -1.3565 N   0  0  0  0  0  0  0  0  0  0  0  0
    0.4856   -2.1056    3.4338 B   0  0  0  0  0  0  0  0  0  0  0  0
   -0.5873   -1.2050    3.8245 N   0  0  0  0  0  0  0  0  0  0  0  0
   -3.2244   -1.4514    1.0003 B   0  0  0  0  0  0  0  0  0  0  0  0
    2.6713   -0.8555    2.6211 N   0  0  0  0  0  0  0  0  0  0  0  0
    1.8786    3.3393   -0.1064 B   0  0  0  0  0  0  0  0  0  0  0  0
    2.8769   -2.3318   -0.7936 N   0  0  0  0  0  0  0  0  0  0  0  0
  1  2  1  0  0  0  0
  2  3  1  0  0  0  0
  3  4  1  0  0  0  0
  3  5  1  0  0  0  0
  5  6  2  0  0  0  0
  5  7  1  0  0  0  0
  7  8  1  0  0  0  0
  8  9  1  0  0  0  0
  3 10  1  0  0  0  0
  9 10  2  0  0  0  0
 10 11  1  0  0  0  0
 11 12  2  0  0  0  0
 12 13  1  0  0  0  0
  9 14  1  0  0  0  0
 13 14  1  0  0  0  0
 14 15  2  0  0  0  0
 13 16  1  0  0  0  0
 16 17  1  0  0  0  0
 12 18  1  0  0  0  0
 17 18  4  0  0  0  0
 18 19  4  0  0  0  0
 19 20  2  0  0  0  0
 20 21  1  0  0  0  0
 21 22  1  0  0  0  0
 22 23  1  0  0  0  0
 22 24  1  0  0  0  0
 20 25  4  0  0  0  0
 17 26  4  0  0  0  0
 25 26  4  0  0  0  0
 26 27  4  0  0  0  0
 27 28  2  0  0  0  0
 28 29  4  0  0  0  0
 25 30  4  0  0  0  0
 29 30  4  0  0  0  0
 29 31  1  0  0  0  0
  1 32  1  0  0  0  0
  1 33  1  0  0  0  0
  1 34  1  0  0  0  0
  2 35  1  0  0  0  0
  2 36  1  0  0  0  0
  4 37  1  0  0  0  0
  8 38  1  0  0  0  0
  8 39  1  0  0  0  0
 11 40  1  0  0  0  0
 16 41  1  0  0  0  0
 16 42  1  0  0  0  0
 19 43  1  0  0  0  0
 21 44  1  0  0  0  0
 21 45  1  0  0  0  0
 23 46  1  0  0  0  0
 23 47  1  0  0  0  0
 23 48  1  0  0  0  0
 24 49  1  0  0  0  0
 24 50  1  0  0  0  0
 24 51  1  0  0  0  0
 27 52  1  0  0  0  0
 28 53  1  0  0  0  0
 30 54  1  0  0  0  0
 31 55  1  0  0  0  0
 63 64  1  0  0  0  0
 66 67  1  0  0  0  0
 62 69  1  0  0  0  0
 65 70  1  0  0  0  0
 69 72  1  0  0  0  0
 71 74  1  0  0  0  0
 73 75  1  0  0  0  0
 63 76  1  0  0  0  0
 66 77  1  0  0  0  0
 62 78  1  0  0  0  0
 75 79  1  0  0  0  0
 77 80  1  0  0  0  0
 61 82  1  0  0  0  0
 69 83  1  0  0  0  0
 78 83  1  0  0  0  0
 82 85  1  0  0  0  0
 59 86  1  0  0  0  0
 81 86  1  0  0  0  0
 83 88  1  0  0  0  0
 70 89  1  0  0  0  0
 76 90  1  0  0  0  0
 89 90  1  0  0  0  0
 71 91  1  0  0  0  0
 78 91  1  0  0  0  0
 74 92  1  0  0  0  0
 60 93  1  0  0  0  0
 67 94  1  0  0  0  0
 71 94  1  0  0  0  0
 62 95  1  0  0  0  0
 80 95  1  0  0  0  0
 94 95  1  0  0  0  0
 60 96  1  0  0  0  0
 93 96  1  0  0  0  0
 72 97  1  0  0  0  0
 79 97  1  0  0  0  0
 85 98  1  0  0  0  0
 87 98  1  0  0  0  0
 90 98  1  0  0  0  0
 82 99  1  0  0  0  0
 93 99  1  0  0  0  0
 76100  1  0  0  0  0
 96101  1  0  0  0  0
 56102  1  0  0  0  0
 57102  1  0  0  0  0
 81102  1  0  0  0  0
 58103  1  0  0  0  0
 92103  1  0  0  0  0
 64104  1  0  0  0  0
 68104  1  0  0  0  0
 92104  1  0  0  0  0
 66105  1  0  0  0  0
 77105  1  0  0  0  0
 64106  1  0  0  0  0
 74106  1  0  0  0  0
 67107  1  0  0  0  0
100107  1  0  0  0  0
106107  1  0  0  0  0
 56108  1  0  0  0  0
101108  1  0  0  0  0
 65109  1  0  0  0  0
101109  1  0  0  0  0
 75110  1  0  0  0  0
 84111  1  0  0  0  0
 97111  1  0  0  0  0
 85112  1  0  0  0  0
 99112  1  0  0  0  0
 87113  1  0  0  0  0
100113  1  0  0  0  0
105113  1  0  0  0  0
 57114  1  0  0  0  0
 58114  1  0  0  0  0
 81114  1  0  0  0  0
 57115  1  0  0  0  0
 88115  1  0  0  0  0
110115  1  0  0  0  0
 59116  1  0  0  0  0
 70116  1  0  0  0  0
 72117  1  0  0  0  0
 80117  1  0  0  0  0
111117  1  0  0  0  0
 59118  1  0  0  0  0
 68118  1  0  0  0  0
103118  1  0  0  0  0
 61119  1  0  0  0  0
 84119  1  0  0  0  0
 63120  1  0  0  0  0
 68120  1  0  0  0  0
116120  1  0  0  0  0
 65121  1  0  0  0  0
 89121  1  0  0  0  0
112121  1  0  0  0  0
 60122  1  0  0  0  0
 73122  1  0  0  0  0
 79123  1  0  0  0  0
 84123  1  0  0  0  0
122123  1  0  0  0  0
 61124  1  0  0  0  0
 87124  1  0  0  0  0
119124  1  0  0  0  0
 56125  1  0  0  0  0
 73125  1  0  0  0  0
110125  1  0  0  0  0
 58126  1  0  0  0  0
 88126  1  0  0  0  0
 91126  1  0  0  0  0
 86127  1  0  0  0  0
108127  1  0  0  0  0
109127  1  0  0  0  0
M  END
