 xtb: 6.7.1pre (5071a88)
          08312618333D

140130  0     0  0            999 V2000
    8.3728    1.6940    1.8675 C   0  0  0  0  0  0  0  0  0  0  0  0
    7.0365    1.3424    1.5373 O   0  0  0  0  0  0  0  0  0  0  0  0
    6.0798    2.3203    1.5257 C   0  0  0  0  0  0  0  0  0  0  0  0
    6.3586    3.6649    1.8121 C   0  0  0  0  0  0  0  0  0  0  0  0
    5.3473    4.6246    1.7910 C   0  0  0  0  0  0  0  0  0  0  0  0
    4.0450    4.2500    1.4840 C   0  0  0  0  0  0  0  0  0  0  0  0
    3.7505    2.9106    1.1957 C   0  0  0  0  0  0  0  0  0  0  0  0
    2.3566    2.5547    0.8767 C   0  0  0  0  0  0  0  0  0  0  0  0
    1.4888    3.4238    0.8407 O   0  0  0  0  0  0  0  0  0  0  0  0
    1.9918    1.1535    0.6001 C   0  0  0  0  0  0  0  0  0  0  0  0
    0.6563    0.8020    0.3190 C   0  0  0  0  0  0  0  0  0  0  0  0
   -0.3429    1.7465    0.3426 O   0  0  0  0  0  0  0  0  0  0  0  0
    0.2871   -0.5290    0.0360 C   0  0  0  0  0  0  0  0  0  0  0  0
    1.2755   -1.5295    0.1346 C   0  0  0  0  0  0  0  0  0  0  0  0
    2.6109   -1.1625    0.3869 C   0  0  0  0  0  0  0  0  0  0  0  0
    3.5347   -2.1807    0.3951 O   0  0  0  0  0  0  0  0  0  0  0  0
    2.9767    0.1742    0.6179 C   0  0  0  0  0  0  0  0  0  0  0  0
    4.3874    0.5339    0.8917 C   0  0  0  0  0  0  0  0  0  0  0  0
    5.2169   -0.3695    0.8389 O   0  0  0  0  0  0  0  0  0  0  0  0
    4.7559    1.9399    1.2110 C   0  0  0  0  0  0  0  0  0  0  0  0
    0.9428   -2.9996   -0.0169 C   0  0  0  0  0  0  0  0  0  0  0  0
   -0.5547   -3.3395   -0.0039 C   0  0  0  0  0  0  0  0  0  0  0  0
   -0.7360   -4.6227   -0.6359 O   0  0  0  0  0  0  0  0  0  0  0  0
   -1.1071   -3.4164    1.4400 C   0  0  0  0  0  0  0  0  0  0  0  0
   -0.6730   -2.7008    2.3465 O   0  0  0  0  0  0  0  0  0  0  0  0
   -2.3012   -4.3428    1.6766 C   0  0  0  0  0  0  0  0  0  0  0  0
   -2.0324   -5.7082    1.4166 O   0  0  0  0  0  0  0  0  0  0  0  0
   -1.3297   -2.3125   -0.8130 C   0  0  0  0  0  0  0  0  0  0  0  0
   -1.1575   -0.8839   -0.2864 C   0  0  0  0  0  0  0  0  0  0  0  0
   -1.6318   -0.0339   -1.3403 O   0  0  0  0  0  0  0  0  0  0  0  0
   -2.9029    0.5474   -1.0438 C   0  0  0  0  0  0  0  0  0  0  0  0
   -3.1482    1.6512   -2.0800 C   0  0  0  0  0  0  0  0  0  0  0  0
   -4.6301    1.9637   -2.2443 C   0  0  0  0  0  0  0  0  0  0  0  0
   -5.1468    2.6669   -1.0516 N   0  0  0  0  0  0  0  0  0  0  0  0
   -5.4298    0.6659   -2.5553 C   0  0  0  0  0  0  0  0  0  0  0  0
   -6.6342    0.6710   -1.7707 O   0  0  0  0  0  0  0  0  0  0  0  0
   -4.5965   -0.6035   -2.2739 C   0  0  0  0  0  0  0  0  0  0  0  0
   -5.4485   -1.8647   -2.1979 C   0  0  0  0  0  0  0  0  0  0  0  0
   -3.9175   -0.4615   -1.0239 O   0  0  0  0  0  0  0  0  0  0  0  0
    8.4361    2.0927    2.8853 H   0  0  0  0  0  0  0  0  0  0  0  0
    8.9773    0.7827    1.8295 H   0  0  0  0  0  0  0  0  0  0  0  0
    8.7867    2.3981    1.1385 H   0  0  0  0  0  0  0  0  0  0  0  0
    7.3616    4.0012    2.0580 H   0  0  0  0  0  0  0  0  0  0  0  0
    5.5767    5.6641    2.0157 H   0  0  0  0  0  0  0  0  0  0  0  0
    3.2610    5.0058    1.4717 H   0  0  0  0  0  0  0  0  0  0  0  0
    0.0560    2.6259    0.5303 H   0  0  0  0  0  0  0  0  0  0  0  0
    4.4226   -1.7934    0.5786 H   0  0  0  0  0  0  0  0  0  0  0  0
    1.3881   -3.3388   -0.9622 H   0  0  0  0  0  0  0  0  0  0  0  0
    1.4366   -3.5732    0.7790 H   0  0  0  0  0  0  0  0  0  0  0  0
   -0.2941   -4.5910   -1.5056 H   0  0  0  0  0  0  0  0  0  0  0  0
   -3.1390   -4.0133    1.0548 H   0  0  0  0  0  0  0  0  0  0  0  0
   -2.6068   -4.2552    2.7238 H   0  0  0  0  0  0  0  0  0  0  0  0
   -1.6459   -5.7393    0.5158 H   0  0  0  0  0  0  0  0  0  0  0  0
   -1.0149   -2.3636   -1.8662 H   0  0  0  0  0  0  0  0  0  0  0  0
   -2.3949   -2.5733   -0.8435 H   0  0  0  0  0  0  0  0  0  0  0  0
   -1.7409   -0.7552    0.6352 H   0  0  0  0  0  0  0  0  0  0  0  0
   -2.8792    1.0008   -0.0458 H   0  0  0  0  0  0  0  0  0  0  0  0
   -2.5698    2.5450   -1.8129 H   0  0  0  0  0  0  0  0  0  0  0  0
   -2.7436    1.3411   -3.0538 H   0  0  0  0  0  0  0  0  0  0  0  0
   -4.7494    2.6485   -3.0929 H   0  0  0  0  0  0  0  0  0  0  0  0
   -6.1270    2.9056   -1.2297 H   0  0  0  0  0  0  0  0  0  0  0  0
   -4.6621    3.5593   -0.9474 H   0  0  0  0  0  0  0  0  0  0  0  0
   -5.7470    0.6632   -3.6041 H   0  0  0  0  0  0  0  0  0  0  0  0
   -6.3208    0.8582   -0.8608 H   0  0  0  0  0  0  0  0  0  0  0  0
   -3.8498   -0.7476   -3.0657 H   0  0  0  0  0  0  0  0  0  0  0  0
   -6.1297   -1.8396   -1.3406 H   0  0  0  0  0  0  0  0  0  0  0  0
   -4.8085   -2.7424   -2.0547 H   0  0  0  0  0  0  0  0  0  0  0  0
   -6.0310   -2.0064   -3.1131 H   0  0  0  0  0  0  0  0  0  0  0  0
    2.1012    0.0000    3.3450 B   0  0  0  0  0  0  0  0  0  0  0  0
   -2.1012    0.0000    3.3450 B   0  0  0  0  0  0  0  0  0  0  0  0
    0.0000    2.1012    3.3450 B   0  0  0  0  0  0  0  0  0  0  0  0
    0.0000   -2.1012    3.3450 B   0  0  0  0  0  0  0  0  0  0  0  0
    3.3450    2.1012    0.0000 B   0  0  0  0  0  0  0  0  0  0  0  0
    3.3450   -2.1012    0.0000 B   0  0  0  0  0  0  0  0  0  0  0  0
    3.3450    0.0000    2.1012 B   0  0  0  0  0  0  0  0  0  0  0  0
    3.3450    0.0000   -2.1012 B   0  0  0  0  0  0  0  0  0  0  0  0
   -3.3450    2.1012    0.0000 B   0  0  0  0  0  0  0  0  0  0  0  0
   -3.3450   -2.1012    0.0000 B   0  0  0  0  0  0  0  0  0  0  0  0
   -3.3450    0.0000    2.1012 B   0  0  0  0  0  0  0  0  0  0  0  0
   -3.3450    0.0000   -2.1012 B   0  0  0  0  0  0  0  0  0  0  0  0
    2.1012    0.0000   -3.3450 B   0  0  0  0  0  0  0  0  0  0  0  0
   -2.1012    0.0000   -3.3450 B   0  0  0  0  0  0  0  0  0  0  0  0
    0.0000    2.1012   -3.3450 B   0  0  0  0  0  0  0  0  0  0  0  0
    0.0000   -2.1012   -3.3450 B   0  0  0  0  0  0  0  0  0  0  0  0
    0.0000    3.3450    2.1012 B   0  0  0  0  0  0  0  0  0  0  0  0
    0.0000    3.3450   -2.1012 B   0  0  0  0  0  0  0  0  0  0  0  0
    0.0000   -3.3450    2.1012 B   0  0  0  0  0  0  0  0  0  0  0  0
    0.0000   -3.3450   -2.1012 B   0  0  0  0  0  0  0  0  0  0  0  0
    2.1012    3.3450    0.0000 B   0  0  0  0  0  0  0  0  0  0  0  0
   -2.1012    3.3450    0.0000 B   0  0  0  0  0  0  0  0  0  0  0  0
    2.1012   -3.3450    0.0000 B   0  0  0  0  0  0  0  0  0  0  0  0
   -2.1012   -3.3450    0.0000 B   0  0  0  0  0  0  0  0  0  0  0  0
    1.4800    1.4800    3.5800 B   0  0  0  0  0  0  0  0  0  0  0  0
   -1.4800    1.4800    3.5800 B   0  0  0  0  0  0  0  0  0  0  0  0
    1.4800   -1.4800    3.5800 B   0  0  0  0  0  0  0  0  0  0  0  0
   -1.4800   -1.4800    3.5800 B   0  0  0  0  0  0  0  0  0  0  0  0
    3.5800    1.4800    1.4800 B   0  0  0  0  0  0  0  0  0  0  0  0
    3.5800   -1.4800    1.4800 B   0  0  0  0  0  0  0  0  0  0  0  0
    3.5800    1.4800   -1.4800 B   0  0  0  0  0  0  0  0  0  0  0  0
    3.5800   -1.4800   -1.4800 B   0  0  0  0  0  0  0  0  0  0  0  0
   -3.5800    1.4800    1.4800 B   0  0  0  0  0  0  0  0  0  0  0  0
   -3.5800   -1.4800    1.4800 B   0  0  0  0  0  0  0  0  0  0  0  0
   -3.5800    1.4800   -1.4800 B   0  0  0  0  0  0  0  0  0  0  0  0
   -3.5800   -1.4800   -1.4800 B   0  0  0  0  0  0  0  0  0  0  0  0
    2.1012    0.0000    3.9200 N   0  0  0  0  0  0  0  0  0  0  0  0
   -2.1012    0.0000    3.9200 N   0  0  0  0  0  0  0  0  0  0  0  0
    0.0000    2.1012    3.9200 N   0  0  0  0  0  0  0  0  0  0  0  0
    0.0000   -2.1012    3.9200 N   0  0  0  0  0  0  0  0  0  0  0  0
    3.9200    2.1012    0.0000 N   0  0  0  0  0  0  0  0  0  0  0  0
    3.9200   -2.1012    0.0000 N   0  0  0  0  0  0  0  0  0  0  0  0
    3.9200    0.0000    2.1012 N   0  0  0  0  0  0  0  0  0  0  0  0
    3.9200    0.0000   -2.1012 N   0  0  0  0  0  0  0  0  0  0  0  0
   -3.9200    2.1012    0.0000 N   0  0  0  0  0  0  0  0  0  0  0  0
   -3.9200   -2.1012    0.0000 N   0  0  0  0  0  0  0  0  0  0  0  0
   -3.9200    0.0000    2.1012 N   0  0  0  0  0  0  0  0  0  0  0  0
   -3.9200    0.0000   -2.1012 N   0  0  0  0  0  0  0  0  0  0  0  0
    2.1012    0.0000   -3.9200 N   0  0  0  0  0  0  0  0  0  0  0  0
   -2.1012    0.0000   -3.9200 N   0  0  0  0  0  0  0  0  0  0  0  0
    0.0000    2.1012   -3.9200 N   0  0  0  0  0  0  0  0  0  0  0  0
    0.0000   -2.1012   -3.9200 N   0  0  0  0  0  0  0  0  0  0  0  0
    0.0000    3.9200    2.1012 N   0  0  0  0  0  0  0  0  0  0  0  0
    0.0000    3.9200   -2.1012 N   0  0  0  0  0  0  0  0  0  0  0  0
    0.0000   -3.9200    2.1012 N   0  0  0  0  0  0  0  0  0  0  0  0
    0.0000   -3.9200   -2.1012 N   0  0  0  0  0  0  0  0  0  0  0  0
    2.1012    3.9200    0.0000 N   0  0  0  0  0  0  0  0  0  0  0  0
   -2.1012    3.9200    0.0000 N   0  0  0  0  0  0  0  0  0  0  0  0
    2.1012   -3.9200    0.0000 N   0  0  0  0  0  0  0  0  0  0  0  0
   -2.1012   -3.9200    0.0000 N   0  0  0  0  0  0  0  0  0  0  0  0
    1.4800    1.4800    4.2200 N   0  0  0  0  0  0  0  0  0  0  0  0
   -1.4800    1.4800    4.2200 N   0  0  0  0  0  0  0  0  0  0  0  0
    1.4800   -1.4800    4.2200 N   0  0  0  0  0  0  0  0  0  0  0  0
   -1.4800   -1.4800    4.2200 N   0  0  0  0  0  0  0  0  0  0  0  0
    4.2200    1.4800    1.4800 N   0  0  0  0  0  0  0  0  0  0  0  0
    4.2200   -1.4800    1.4800 N   0  0  0  0  0  0  0  0  0  0  0  0
    4.2200    1.4800   -1.4800 N   0  0  0  0  0  0  0  0  0  0  0  0
    4.2200   -1.4800   -1.4800 N   0  0  0  0  0  0  0  0  0  0  0  0
   -4.2200    1.4800    1.4800 N   0  0  0  0  0  0  0  0  0  0  0  0
   -4.2200   -1.4800    1.4800 N   0  0  0  0  0  0  0  0  0  0  0  0
   -4.2200    1.4800   -1.4800 N   0  0  0  0  0  0  0  0  0  0  0  0
   -4.2200   -1.4800   -1.4800 N   0  0  0  0  0  0  0  0  0  0  0  0
  1  2  1  0  0  0  0
  2  3  1  0  0  0  0
  3  4  4  0  0  0  0
  4  5  4  0  0  0  0
  5  6  4  0  0  0  0
  6  7  4  0  0  0  0
  7  8  1  0  0  0  0
  8  9  1  0  0  0  0
  8 10  1  0  0  0  0
 10 11  1  0  0  0  0
 11 12  1  0  0  0  0
 11 13  4  0  0  0  0
 13 14  1  0  0  0  0
 14 15  1  0  0  0  0
 10 17  1  0  0  0  0
 15 17  1  0  0  0  0
 17 18  1  0  0  0  0
 18 19  1  0  0  0  0
  3 20  1  0  0  0  0
  7 20  1  0  0  0  0
 14 21  1  0  0  0  0
 21 22  1  0  0  0  0
 22 23  1  0  0  0  0
 22 24  1  0  0  0  0
 24 25  1  0  0  0  0
 24 26  1  0  0  0  0
 26 27  1  0  0  0  0
 22 28  1  0  0  0  0
 13 29  1  0  0  0  0
 28 29  1  0  0  0  0
 29 30  1  0  0  0  0
 30 31  1  0  0  0  0
 32 33  1  0  0  0  0
 33 34  1  0  0  0  0
 33 35  1  0  0  0  0
 35 36  1  0  0  0  0
 35 37  1  0  0  0  0
 37 38  1  0  0  0  0
 31 39  1  0  0  0  0
  1 40  1  0  0  0  0
  1 41  1  0  0  0  0
  1 42  1  0  0  0  0
  4 43  1  0  0  0  0
  5 44  1  0  0  0  0
  6 45  1  0  0  0  0
 12 46  1  0  0  0  0
 21 48  1  0  0  0  0
 21 49  1  0  0  0  0
 23 50  1  0  0  0  0
 26 51  1  0  0  0  0
 26 52  1  0  0  0  0
 27 53  1  0  0  0  0
 28 54  1  0  0  0  0
 28 55  1  0  0  0  0
 29 56  1  0  0  0  0
 31 57  1  0  0  0  0
 32 58  1  0  0  0  0
 32 59  1  0  0  0  0
 33 60  1  0  0  0  0
 34 61  1  0  0  0  0
 34 62  1  0  0  0  0
 35 63  1  0  0  0  0
 36 64  1  0  0  0  0
 37 65  1  0  0  0  0
 38 66  1  0  0  0  0
 38 67  1  0  0  0  0
 38 68  1  0  0  0  0
 25 72  1  0  0  0  0
  8 73  1  0  0  0  0
 15 74  1  0  0  0  0
 16 74  2  0  0  0  0
 31 80  1  0  0  0  0
 25 87  1  0  0  0  0
  8 89  1  0  0  0  0
  9 89  1  0  0  0  0
 21 91  1  0  0  0  0
 15 98  1  0  0  0  0
 31103  1  0  0  0  0
 32103  1  0  0  0  0
 39104  1  0  0  0  0
 69105  3  0  0  0  0
 70106  3  0  0  0  0
 71107  3  0  0  0  0
 72108  3  0  0  0  0
  7109  1  0  0  0  0
 73109  3  0  0  0  0
 16110  2  0  0  0  0
 74110  1  0  0  0  0
 18111  1  0  0  0  0
 75111  3  0  0  0  0
 76112  3  0  0  0  0
 77113  3  0  0  0  0
 78114  3  0  0  0  0
 79115  3  0  0  0  0
 37116  1  0  0  0  0
 39116  1  0  0  0  0
 80116  2  0  0  0  0
 81117  3  0  0  0  0
 82118  3  0  0  0  0
 83119  3  0  0  0  0
 84120  3  0  0  0  0
 85121  3  0  0  0  0
 86122  3  0  0  0  0
 24123  1  0  0  0  0
 87123  2  0  0  0  0
 88124  3  0  0  0  0
  9125  1  0  0  0  0
 89125  2  0  0  0  0
 90126  3  0  0  0  0
 91127  3  0  0  0  0
 92128  3  0  0  0  0
 93129  3  0  0  0  0
 94130  3  0  0  0  0
 95131  3  0  0  0  0
 96132  3  0  0  0  0
 18133  1  0  0  0  0
 20133  4  0  0  0  0
 97133  2  0  0  0  0
 98134  3  0  0  0  0
 99135  3  0  0  0  0
100136  3  0  0  0  0
101137  3  0  0  0  0
102138  3  0  0  0  0
 32139  1  0  0  0  0
 33139  1  0  0  0  0
103139  2  0  0  0  0
 37140  1  0  0  0  0
 38140  1  0  0  0  0
 39140  1  0  0  0  0
104140  2  0  0  0  0
M  END
