 xtb: 6.7.1pre (5071a88)
          08312622273D

140180  0     0  0            999 V2000
    1.6338   -8.2631   13.0717 C   0  0  0  0  0  0  0  0  0  0  0  0
    1.2951   -6.9245   12.8006 O   0  0  0  0  0  0  0  0  0  0  0  0
    2.2529   -5.9836   12.7951 C   0  0  0  0  0  0  0  0  0  0  0  0
    3.5993   -6.2596   13.0417 C   0  0  0  0  0  0  0  0  0  0  0  0
    4.5466   -5.2523   13.0292 C   0  0  0  0  0  0  0  0  0  0  0  0
    4.1711   -3.9505   12.7714 C   0  0  0  0  0  0  0  0  0  0  0  0
    2.8369   -3.6480   12.5153 C   0  0  0  0  0  0  0  0  0  0  0  0
    2.5025   -2.2422   12.2413 C   0  0  0  0  0  0  0  0  0  0  0  0
    3.3876   -1.3740   12.2905 O   0  0  0  0  0  0  0  0  0  0  0  0
    1.1278   -1.9312   11.9077 C   0  0  0  0  0  0  0  0  0  0  0  0
    0.7828   -0.6058   11.5896 C   0  0  0  0  0  0  0  0  0  0  0  0
    1.6771    0.3766   11.6319 O   0  0  0  0  0  0  0  0  0  0  0  0
   -0.5487   -0.2891   11.2336 C   0  0  0  0  0  0  0  0  0  0  0  0
   -1.5223   -1.2590   11.2764 C   0  0  0  0  0  0  0  0  0  0  0  0
   -1.1887   -2.5950   11.6119 C   0  0  0  0  0  0  0  0  0  0  0  0
   -2.1817   -3.4852   11.6180 O   0  0  0  0  0  0  0  0  0  0  0  0
    0.1360   -2.9404   11.9110 C   0  0  0  0  0  0  0  0  0  0  0  0
    0.4538   -4.3298   12.2412 C   0  0  0  0  0  0  0  0  0  0  0  0
   -0.4322   -5.1922   12.2734 O   0  0  0  0  0  0  0  0  0  0  0  0
    1.8576   -4.6519   12.5196 C   0  0  0  0  0  0  0  0  0  0  0  0
   -2.9678   -0.9771   10.9954 C   0  0  0  0  0  0  0  0  0  0  0  0
   -3.3204    0.5091   11.1070 C   0  0  0  0  0  0  0  0  0  0  0  0
   -4.6107    0.7662   10.5775 O   0  0  0  0  0  0  0  0  0  0  0  0
   -3.2694    0.9735   12.5688 C   0  0  0  0  0  0  0  0  0  0  0  0
   -2.4882    0.4965   13.3496 O   0  0  0  0  0  0  0  0  0  0  0  0
   -4.1892    2.1285   12.9498 C   0  0  0  0  0  0  0  0  0  0  0  0
   -5.5533    1.8277   12.8689 O   0  0  0  0  0  0  0  0  0  0  0  0
   -2.2714    1.3219   10.3317 C   0  0  0  0  0  0  0  0  0  0  0  0
   -0.8543    1.1463   10.8786 C   0  0  0  0  0  0  0  0  0  0  0  0
    0.0642    1.6018    9.8963 O   0  0  0  0  0  0  0  0  0  0  0  0
    0.6390    2.8541   10.1621 C   0  0  0  0  0  0  0  0  0  0  0  0
    1.6992    3.0839    9.0824 C   0  0  0  0  0  0  0  0  0  0  0  0
    1.9721    4.5762    8.9031 C   0  0  0  0  0  0  0  0  0  0  0  0
    2.5109    5.1169   10.1450 N   0  0  0  0  0  0  0  0  0  0  0  0
    0.6525    5.3370    8.5551 C   0  0  0  0  0  0  0  0  0  0  0  0
    0.6099    6.5851    9.1948 O   0  0  0  0  0  0  0  0  0  0  0  0
   -0.5719    4.4669    8.9356 C   0  0  0  0  0  0  0  0  0  0  0  0
   -1.8495    5.2899    9.0303 C   0  0  0  0  0  0  0  0  0  0  0  0
   -0.3320    3.8664   10.2014 O   0  0  0  0  0  0  0  0  0  0  0  0
    2.0682   -8.3748   14.0703 H   0  0  0  0  0  0  0  0  0  0  0  0
    0.6949   -8.8128   13.0255 H   0  0  0  0  0  0  0  0  0  0  0  0
    2.3242   -8.6643   12.3229 H   0  0  0  0  0  0  0  0  0  0  0  0
    3.9159   -7.2697   13.2465 H   0  0  0  0  0  0  0  0  0  0  0  0
    5.5812   -5.4923   13.2231 H   0  0  0  0  0  0  0  0  0  0  0  0
    4.8879   -3.1446   12.7589 H   0  0  0  0  0  0  0  0  0  0  0  0
    2.5490   -0.0383   11.8939 H   0  0  0  0  0  0  0  0  0  0  0  0
   -1.7792   -4.3617   11.8830 H   0  0  0  0  0  0  0  0  0  0  0  0
   -3.2098   -1.3303    9.9868 H   0  0  0  0  0  0  0  0  0  0  0  0
   -3.5768   -1.5596   11.6917 H   0  0  0  0  0  0  0  0  0  0  0  0
   -4.6048    0.5473    9.6387 H   0  0  0  0  0  0  0  0  0  0  0  0
   -3.9312    2.9799   12.2969 H   0  0  0  0  0  0  0  0  0  0  0  0
   -3.9883    2.4026   13.9881 H   0  0  0  0  0  0  0  0  0  0  0  0
   -5.7241    1.4657   11.9882 H   0  0  0  0  0  0  0  0  0  0  0  0
   -2.2661    0.9815    9.2915 H   0  0  0  0  0  0  0  0  0  0  0  0
   -2.5295    2.3827   10.3439 H   0  0  0  0  0  0  0  0  0  0  0  0
   -0.7257    1.7485   11.7901 H   0  0  0  0  0  0  0  0  0  0  0  0
    1.0873    2.8540   11.1664 H   0  0  0  0  0  0  0  0  0  0  0  0
    2.6079    2.5577    9.3721 H   0  0  0  0  0  0  0  0  0  0  0  0
    1.3428    2.6500    8.1482 H   0  0  0  0  0  0  0  0  0  0  0  0
    2.6765    4.6995    8.0610 H   0  0  0  0  0  0  0  0  0  0  0  0
    2.8629    6.0561    9.9906 H   0  0  0  0  0  0  0  0  0  0  0  0
    3.2749    4.5392   10.4747 H   0  0  0  0  0  0  0  0  0  0  0  0
    0.6147    5.5513    7.4826 H   0  0  0  0  0  0  0  0  0  0  0  0
    0.6789    6.3975   10.1421 H   0  0  0  0  0  0  0  0  0  0  0  0
   -0.7008    3.6820    8.1768 H   0  0  0  0  0  0  0  0  0  0  0  0
   -1.7518    6.0413    9.8080 H   0  0  0  0  0  0  0  0  0  0  0  0
   -2.6897    4.6445    9.2707 H   0  0  0  0  0  0  0  0  0  0  0  0
   -2.0360    5.7850    8.0822 H   0  0  0  0  0  0  0  0  0  0  0  0
    3.4617   -1.4426    1.6711 B   0  0  0  0  0  0  0  0  0  0  0  0
    3.4624    1.1424    0.9840 N   0  0  0  0  0  0  0  0  0  0  0  0
    2.5434    2.3741   -1.2178 B   0  0  0  0  0  0  0  0  0  0  0  0
    2.2953   -0.6297   -2.6873 N   0  0  0  0  0  0  0  0  0  0  0  0
    0.6877   -3.5493    2.7469 B   0  0  0  0  0  0  0  0  0  0  0  0
   -2.9374   -2.6394    1.7511 N   0  0  0  0  0  0  0  0  0  0  0  0
   -1.0346    4.0967    1.8733 B   0  0  0  0  0  0  0  0  0  0  0  0
   -0.6169    0.0298   -3.8985 N   0  0  0  0  0  0  0  0  0  0  0  0
   -0.4706    1.4570   -4.0494 B   0  0  0  0  0  0  0  0  0  0  0  0
    1.2092   -3.7732   -1.6959 N   0  0  0  0  0  0  0  0  0  0  0  0
   -3.8418    2.2230   -0.4518 B   0  0  0  0  0  0  0  0  0  0  0  0
   -2.7690    2.7756   -1.1693 N   0  0  0  0  0  0  0  0  0  0  0  0
    1.4088    0.8297   -4.8460 B   0  0  0  0  0  0  0  0  0  0  0  0
   -0.2331    3.3749    2.8779 N   0  0  0  0  0  0  0  0  0  0  0  0
    0.8986   -2.8676   -2.7712 B   0  0  0  0  0  0  0  0  0  0  0  0
   -0.4883    3.7781   -0.9676 N   0  0  0  0  0  0  0  0  0  0  0  0
   -0.8091    2.1983    3.3304 B   0  0  0  0  0  0  0  0  0  0  0  0
    1.6481   -1.2586    3.5342 N   0  0  0  0  0  0  0  0  0  0  0  0
   -0.2449    3.4820   -2.3376 B   0  0  0  0  0  0  0  0  0  0  0  0
    1.3040    0.0818    3.8509 N   0  0  0  0  0  0  0  0  0  0  0  0
   -1.5965   -0.5478   -3.0430 B   0  0  0  0  0  0  0  0  0  0  0  0
   -3.8274    1.7888    0.8735 N   0  0  0  0  0  0  0  0  0  0  0  0
    0.3412    4.5077    1.2263 B   0  0  0  0  0  0  0  0  0  0  0  0
    0.0418   -0.0004    4.4933 N   0  0  0  0  0  0  0  0  0  0  0  0
   -2.7065    2.2402    1.6441 B   0  0  0  0  0  0  0  0  0  0  0  0
    3.7735   -0.1213   -0.7211 N   0  0  0  0  0  0  0  0  0  0  0  0
   -2.2537   -3.6264    1.0508 B   0  0  0  0  0  0  0  0  0  0  0  0
    1.0571    3.7415    2.2785 N   0  0  0  0  0  0  0  0  0  0  0  0
   -1.8283   -0.7628    3.2635 B   0  0  0  0  0  0  0  0  0  0  0  0
   -2.4361   -3.5878   -0.4082 N   0  0  0  0  0  0  0  0  0  0  0  0
    3.0205   -1.0623   -1.4601 B   0  0  0  0  0  0  0  0  0  0  0  0
   -3.1564   -1.2386   -0.3421 N   0  0  0  0  0  0  0  0  0  0  0  0
    2.0382    2.9337    1.6052 B   0  0  0  0  0  0  0  0  0  0  0  0
   -0.5075   -2.8886   -2.3911 N   0  0  0  0  0  0  0  0  0  0  0  0
   -1.6734   -2.1011   -2.4503 B   0  0  0  0  0  0  0  0  0  0  0  0
    0.5930    3.9761   -0.0673 N   0  0  0  0  0  0  0  0  0  0  0  0
    1.0942    2.9713   -3.1396 B   0  0  0  0  0  0  0  0  0  0  0  0
    0.0757   -4.3462    1.7642 N   0  0  0  0  0  0  0  0  0  0  0  0
   -1.7807    3.4651   -0.3667 B   0  0  0  0  0  0  0  0  0  0  0  0
   -2.0087    3.4296    1.0741 N   0  0  0  0  0  0  0  0  0  0  0  0
    1.4644   -4.1995    1.5436 B   0  0  0  0  0  0  0  0  0  0  0  0
   -0.8022    1.0774    4.2441 N   0  0  0  0  0  0  0  0  0  0  0  0
   -2.6660   -2.3892   -1.1335 B   0  0  0  0  0  0  0  0  0  0  0  0
   -1.0747   -4.4709    1.0336 N   0  0  0  0  0  0  0  0  0  0  0  0
   -2.5026    0.5043   -2.0680 B   0  0  0  0  0  0  0  0  0  0  0  0
    2.3503   -3.8727    0.4974 N   0  0  0  0  0  0  0  0  0  0  0  0
    3.9171   -0.1907    0.7691 B   0  0  0  0  0  0  0  0  0  0  0  0
    1.9322    1.9690   -2.4219 N   0  0  0  0  0  0  0  0  0  0  0  0
    1.0053    2.2664   -4.5798 B   0  0  0  0  0  0  0  0  0  0  0  0
   -4.1834    0.8428   -0.3048 N   0  0  0  0  0  0  0  0  0  0  0  0
   -1.3357    2.4662   -3.0730 B   0  0  0  0  0  0  0  0  0  0  0  0
   -2.3566    1.9454   -2.2639 N   0  0  0  0  0  0  0  0  0  0  0  0
    3.0731   -2.6327    0.6442 B   0  0  0  0  0  0  0  0  0  0  0  0
    2.3339   -3.6610   -0.9263 N   0  0  0  0  0  0  0  0  0  0  0  0
    2.2251    0.5598    2.8524 B   0  0  0  0  0  0  0  0  0  0  0  0
   -2.0299    0.6269    3.6478 N   0  0  0  0  0  0  0  0  0  0  0  0
   -1.1020   -4.1721   -0.3991 B   0  0  0  0  0  0  0  0  0  0  0  0
   -3.2166    0.0551   -0.9169 N   0  0  0  0  0  0  0  0  0  0  0  0
    3.4516    1.2705   -0.4708 B   0  0  0  0  0  0  0  0  0  0  0  0
    2.5885    1.6453    1.9801 N   0  0  0  0  0  0  0  0  0  0  0  0
    1.4740   -1.5431   -3.4724 B   0  0  0  0  0  0  0  0  0  0  0  0
   -2.1043    1.7710    2.8084 N   0  0  0  0  0  0  0  0  0  0  0  0
    2.0446    0.7240   -3.1689 B   0  0  0  0  0  0  0  0  0  0  0  0
   -2.7209   -1.3277    2.3635 N   0  0  0  0  0  0  0  0  0  0  0  0
    0.6606   -0.5270   -4.4439 B   0  0  0  0  0  0  0  0  0  0  0  0
   -0.1691   -3.7474   -1.3146 N   0  0  0  0  0  0  0  0  0  0  0  0
    0.4825   -2.0933    3.4765 B   0  0  0  0  0  0  0  0  0  0  0  0
   -0.5900   -1.1898    3.8708 N   0  0  0  0  0  0  0  0  0  0  0  0
   -3.2246   -1.4375    1.0418 B   0  0  0  0  0  0  0  0  0  0  0  0
    2.6727   -0.8423    2.6632 N   0  0  0  0  0  0  0  0  0  0  0  0
    1.8817    3.3512   -0.0634 B   0  0  0  0  0  0  0  0  0  0  0  0
    2.8775   -2.3200   -0.7506 N   0  0  0  0  0  0  0  0  0  0  0  0
  1  2  1  0  0  0  0
  2  3  1  0  0  0  0
  3  4  4  0  0  0  0
  4  5  4  0  0  0  0
  5  6  4  0  0  0  0
  6  7  4  0  0  0  0
  7  8  1  0  0  0  0
  8  9  2  0  0  0  0
  8 10  1  0  0  0  0
 10 11  4  0  0  0  0
 11 12  1  0  0  0  0
 11 13  4  0  0  0  0
 13 14  4  0  0  0  0
 14 15  4  0  0  0  0
 15 16  1  0  0  0  0
 10 17  4  0  0  0  0
 15 17  4  0  0  0  0
 17 18  1  0  0  0  0
 18 19  2  0  0  0  0
  3 20  4  0  0  0  0
  7 20  4  0  0  0  0
 18 20  1  0  0  0  0
 14 21  1  0  0  0  0
 21 22  1  0  0  0  0
 22 23  1  0  0  0  0
 22 24  1  0  0  0  0
 24 25  2  0  0  0  0
 24 26  1  0  0  0  0
 26 27  1  0  0  0  0
 22 28  1  0  0  0  0
 13 29  1  0  0  0  0
 28 29  1  0  0  0  0
 29 30  1  0  0  0  0
 30 31  1  0  0  0  0
 31 32  1  0  0  0  0
 32 33  1  0  0  0  0
 33 34  1  0  0  0  0
 33 35  1  0  0  0  0
 35 36  1  0  0  0  0
 35 37  1  0  0  0  0
 37 38  1  0  0  0  0
 31 39  1  0  0  0  0
 37 39  1  0  0  0  0
  1 40  1  0  0  0  0
  1 41  1  0  0  0  0
  1 42  1  0  0  0  0
  4 43  1  0  0  0  0
  5 44  1  0  0  0  0
  6 45  1  0  0  0  0
 12 46  1  0  0  0  0
 16 47  1  0  0  0  0
 21 48  1  0  0  0  0
 21 49  1  0  0  0  0
 23 50  1  0  0  0  0
 26 51  1  0  0  0  0
 26 52  1  0  0  0  0
 27 53  1  0  0  0  0
 28 54  1  0  0  0  0
 28 55  1  0  0  0  0
 29 56  1  0  0  0  0
 31 57  1  0  0  0  0
 32 58  1  0  0  0  0
 32 59  1  0  0  0  0
 33 60  1  0  0  0  0
 34 61  1  0  0  0  0
 34 62  1  0  0  0  0
 35 63  1  0  0  0  0
 36 64  1  0  0  0  0
 37 65  1  0  0  0  0
 38 66  1  0  0  0  0
 38 67  1  0  0  0  0
 38 68  1  0  0  0  0
 76 77  1  0  0  0  0
 79 80  1  0  0  0  0
 75 82  1  0  0  0  0
 78 83  1  0  0  0  0
 82 85  1  0  0  0  0
 84 87  1  0  0  0  0
 86 88  1  0  0  0  0
 76 89  1  0  0  0  0
 79 90  1  0  0  0  0
 75 91  1  0  0  0  0
 88 92  1  0  0  0  0
 90 93  1  0  0  0  0
 74 95  1  0  0  0  0
 82 96  1  0  0  0  0
 91 96  1  0  0  0  0
 95 98  1  0  0  0  0
 72 99  1  0  0  0  0
 94 99  1  0  0  0  0
 96101  1  0  0  0  0
 83102  1  0  0  0  0
 89103  1  0  0  0  0
102103  1  0  0  0  0
 84104  1  0  0  0  0
 91104  1  0  0  0  0
 87105  1  0  0  0  0
 73106  1  0  0  0  0
 80107  1  0  0  0  0
 84107  1  0  0  0  0
 75108  1  0  0  0  0
 93108  1  0  0  0  0
107108  1  0  0  0  0
 73109  1  0  0  0  0
106109  1  0  0  0  0
 85110  1  0  0  0  0
 92110  1  0  0  0  0
 98111  1  0  0  0  0
100111  1  0  0  0  0
103111  1  0  0  0  0
 95112  1  0  0  0  0
106112  1  0  0  0  0
 89113  1  0  0  0  0
109114  1  0  0  0  0
 69115  1  0  0  0  0
 70115  1  0  0  0  0
 94115  1  0  0  0  0
 71116  1  0  0  0  0
105116  1  0  0  0  0
 77117  1  0  0  0  0
 81117  1  0  0  0  0
105117  1  0  0  0  0
 79118  1  0  0  0  0
 90118  1  0  0  0  0
 77119  1  0  0  0  0
 87119  1  0  0  0  0
 80120  1  0  0  0  0
113120  1  0  0  0  0
119120  1  0  0  0  0
 69121  1  0  0  0  0
114121  1  0  0  0  0
 78122  1  0  0  0  0
114122  1  0  0  0  0
 88123  1  0  0  0  0
 97124  1  0  0  0  0
110124  1  0  0  0  0
 98125  1  0  0  0  0
112125  1  0  0  0  0
100126  1  0  0  0  0
113126  1  0  0  0  0
118126  1  0  0  0  0
 70127  1  0  0  0  0
 71127  1  0  0  0  0
 94127  1  0  0  0  0
 70128  1  0  0  0  0
101128  1  0  0  0  0
123128  1  0  0  0  0
 72129  1  0  0  0  0
 83129  1  0  0  0  0
 85130  1  0  0  0  0
 93130  1  0  0  0  0
124130  1  0  0  0  0
 72131  1  0  0  0  0
 81131  1  0  0  0  0
116131  1  0  0  0  0
 74132  1  0  0  0  0
 97132  1  0  0  0  0
 76133  1  0  0  0  0
 81133  1  0  0  0  0
129133  1  0  0  0  0
 78134  1  0  0  0  0
102134  1  0  0  0  0
125134  1  0  0  0  0
 73135  1  0  0  0  0
 86135  1  0  0  0  0
 92136  1  0  0  0  0
 97136  1  0  0  0  0
135136  1  0  0  0  0
 74137  1  0  0  0  0
100137  1  0  0  0  0
132137  1  0  0  0  0
 69138  1  0  0  0  0
 86138  1  0  0  0  0
123138  1  0  0  0  0
 71139  1  0  0  0  0
101139  1  0  0  0  0
104139  1  0  0  0  0
 99140  1  0  0  0  0
121140  1  0  0  0  0
122140  1  0  0  0  0
M  END
