 xtb: 6.7.1pre (5071a88)
          08312618253D

109 90  0     0  0            999 V2000
   -2.0829    1.3214    1.6766 C   0  0  0  0  0  0  0  0  0  0  0  0
   -1.9681    0.9196    0.1998 C   0  0  0  0  0  0  0  0  0  0  0  0
   -0.7516    0.1648    0.0046 N   0  0  0  0  0  0  0  0  0  0  0  0
   -0.2836   -0.3462   -1.1836 C   0  0  0  0  0  0  0  0  0  0  0  0
   -0.9253   -0.3266   -2.2298 O   0  0  0  0  0  0  0  0  0  0  0  0
    1.0661   -0.9655   -1.1585 C   0  0  0  0  0  0  0  0  0  0  0  0
    1.5735   -1.5779   -2.3205 C   0  0  0  0  0  0  0  0  0  0  0  0
    2.8394   -2.1701   -2.3312 C   0  0  0  0  0  0  0  0  0  0  0  0
    3.6468   -2.1745   -1.1894 C   0  0  0  0  0  0  0  0  0  0  0  0
    3.1275   -1.5597   -0.0479 C   0  0  0  0  0  0  0  0  0  0  0  0
    3.6372   -1.3864    1.2140 N   0  0  0  0  0  0  0  0  0  0  0  0
    2.7120   -0.7065    1.9663 C   0  0  0  0  0  0  0  0  0  0  0  0
    2.9521   -0.3569    3.3859 C   0  0  0  0  0  0  0  0  0  0  0  0
    1.6379   -0.4342    1.2560 N   0  0  0  0  0  0  0  0  0  0  0  0
    1.8718   -0.9601   -0.0031 C   0  0  0  0  0  0  0  0  0  0  0  0
   -2.0848    2.1502   -0.7151 C   0  0  0  0  0  0  0  0  0  0  0  0
   -3.2858    1.8577   -1.5998 C   0  0  0  0  0  0  0  0  0  0  0  0
   -4.0904    0.8709   -0.7811 C   0  0  0  0  0  0  0  0  0  0  0  0
   -3.0798    0.0258   -0.1356 N   0  0  0  0  0  0  0  0  0  0  0  0
   -3.0164    1.8568    1.8840 H   0  0  0  0  0  0  0  0  0  0  0  0
   -2.0478    0.4437    2.3336 H   0  0  0  0  0  0  0  0  0  0  0  0
   -1.2512    1.9746    1.9663 H   0  0  0  0  0  0  0  0  0  0  0  0
   -0.1174    0.1073    0.8010 H   0  0  0  0  0  0  0  0  0  0  0  0
    0.9698   -1.5929   -3.2268 H   0  0  0  0  0  0  0  0  0  0  0  0
    3.2012   -2.6367   -3.2458 H   0  0  0  0  0  0  0  0  0  0  0  0
    4.6289   -2.6358   -1.1991 H   0  0  0  0  0  0  0  0  0  0  0  0
    4.5397   -1.7055    1.5355 H   0  0  0  0  0  0  0  0  0  0  0  0
    3.8344    0.2835    3.4810 H   0  0  0  0  0  0  0  0  0  0  0  0
    2.0939    0.1813    3.7999 H   0  0  0  0  0  0  0  0  0  0  0  0
    3.1092   -1.2599    3.9837 H   0  0  0  0  0  0  0  0  0  0  0  0
   -1.1916    2.3403   -1.3196 H   0  0  0  0  0  0  0  0  0  0  0  0
   -2.2864    3.0591   -0.1348 H   0  0  0  0  0  0  0  0  0  0  0  0
   -3.8526    2.7621   -1.8397 H   0  0  0  0  0  0  0  0  0  0  0  0
   -2.9613    1.4014   -2.5420 H   0  0  0  0  0  0  0  0  0  0  0  0
   -4.6873    1.3858   -0.0196 H   0  0  0  0  0  0  0  0  0  0  0  0
   -4.7704    0.2791   -1.4010 H   0  0  0  0  0  0  0  0  0  0  0  0
   -2.7067   -0.5899   -0.8641 H   0  0  0  0  0  0  0  0  0  0  0  0
    2.1012    0.0000    3.3450 B   0  0  0  0  0  0  0  0  0  0  0  0
   -2.1012    0.0000    3.3450 B   0  0  0  0  0  0  0  0  0  0  0  0
    0.0000    2.1012    3.3450 B   0  0  0  0  0  0  0  0  0  0  0  0
    0.0000   -2.1012    3.3450 B   0  0  0  0  0  0  0  0  0  0  0  0
    3.3450    2.1012    0.0000 B   0  0  0  0  0  0  0  0  0  0  0  0
    3.3450   -2.1012    0.0000 B   0  0  0  0  0  0  0  0  0  0  0  0
    3.3450    0.0000    2.1012 B   0  0  0  0  0  0  0  0  0  0  0  0
    3.3450    0.0000   -2.1012 B   0  0  0  0  0  0  0  0  0  0  0  0
   -3.3450    2.1012    0.0000 B   0  0  0  0  0  0  0  0  0  0  0  0
   -3.3450   -2.1012    0.0000 B   0  0  0  0  0  0  0  0  0  0  0  0
   -3.3450    0.0000    2.1012 B   0  0  0  0  0  0  0  0  0  0  0  0
   -3.3450    0.0000   -2.1012 B   0  0  0  0  0  0  0  0  0  0  0  0
    2.1012    0.0000   -3.3450 B   0  0  0  0  0  0  0  0  0  0  0  0
   -2.1012    0.0000   -3.3450 B   0  0  0  0  0  0  0  0  0  0  0  0
    0.0000    2.1012   -3.3450 B   0  0  0  0  0  0  0  0  0  0  0  0
    0.0000   -2.1012   -3.3450 B   0  0  0  0  0  0  0  0  0  0  0  0
    0.0000    3.3450    2.1012 B   0  0  0  0  0  0  0  0  0  0  0  0
    0.0000    3.3450   -2.1012 B   0  0  0  0  0  0  0  0  0  0  0  0
    0.0000   -3.3450    2.1012 B   0  0  0  0  0  0  0  0  0  0  0  0
    0.0000   -3.3450   -2.1012 B   0  0  0  0  0  0  0  0  0  0  0  0
    2.1012    3.3450    0.0000 B   0  0  0  0  0  0  0  0  0  0  0  0
   -2.1012    3.3450    0.0000 B   0  0  0  0  0  0  0  0  0  0  0  0
    2.1012   -3.3450    0.0000 B   0  0  0  0  0  0  0  0  0  0  0  0
   -2.1012   -3.3450    0.0000 B   0  0  0  0  0  0  0  0  0  0  0  0
    1.4800    1.4800    3.5800 B   0  0  0  0  0  0  0  0  0  0  0  0
   -1.4800    1.4800    3.5800 B   0  0  0  0  0  0  0  0  0  0  0  0
    1.4800   -1.4800    3.5800 B   0  0  0  0  0  0  0  0  0  0  0  0
   -1.4800   -1.4800    3.5800 B   0  0  0  0  0  0  0  0  0  0  0  0
    3.5800    1.4800    1.4800 B   0  0  0  0  0  0  0  0  0  0  0  0
    3.5800   -1.4800    1.4800 B   0  0  0  0  0  0  0  0  0  0  0  0
    3.5800    1.4800   -1.4800 B   0  0  0  0  0  0  0  0  0  0  0  0
    3.5800   -1.4800   -1.4800 B   0  0  0  0  0  0  0  0  0  0  0  0
   -3.5800    1.4800    1.4800 B   0  0  0  0  0  0  0  0  0  0  0  0
   -3.5800   -1.4800    1.4800 B   0  0  0  0  0  0  0  0  0  0  0  0
   -3.5800    1.4800   -1.4800 B   0  0  0  0  0  0  0  0  0  0  0  0
   -3.5800   -1.4800   -1.4800 B   0  0  0  0  0  0  0  0  0  0  0  0
    2.1012    0.0000    3.9200 N   0  0  0  0  0  0  0  0  0  0  0  0
   -2.1012    0.0000    3.9200 N   0  0  0  0  0  0  0  0  0  0  0  0
    0.0000    2.1012    3.9200 N   0  0  0  0  0  0  0  0  0  0  0  0
    0.0000   -2.1012    3.9200 N   0  0  0  0  0  0  0  0  0  0  0  0
    3.9200    2.1012    0.0000 N   0  0  0  0  0  0  0  0  0  0  0  0
    3.9200   -2.1012    0.0000 N   0  0  0  0  0  0  0  0  0  0  0  0
    3.9200    0.0000    2.1012 N   0  0  0  0  0  0  0  0  0  0  0  0
    3.9200    0.0000   -2.1012 N   0  0  0  0  0  0  0  0  0  0  0  0
   -3.9200    2.1012    0.0000 N   0  0  0  0  0  0  0  0  0  0  0  0
   -3.9200   -2.1012    0.0000 N   0  0  0  0  0  0  0  0  0  0  0  0
   -3.9200    0.0000    2.1012 N   0  0  0  0  0  0  0  0  0  0  0  0
   -3.9200    0.0000   -2.1012 N   0  0  0  0  0  0  0  0  0  0  0  0
    2.1012    0.0000   -3.9200 N   0  0  0  0  0  0  0  0  0  0  0  0
   -2.1012    0.0000   -3.9200 N   0  0  0  0  0  0  0  0  0  0  0  0
    0.0000    2.1012   -3.9200 N   0  0  0  0  0  0  0  0  0  0  0  0
    0.0000   -2.1012   -3.9200 N   0  0  0  0  0  0  0  0  0  0  0  0
    0.0000    3.9200    2.1012 N   0  0  0  0  0  0  0  0  0  0  0  0
    0.0000    3.9200   -2.1012 N   0  0  0  0  0  0  0  0  0  0  0  0
    0.0000   -3.9200    2.1012 N   0  0  0  0  0  0  0  0  0  0  0  0
    0.0000   -3.9200   -2.1012 N   0  0  0  0  0  0  0  0  0  0  0  0
    2.1012    3.9200    0.0000 N   0  0  0  0  0  0  0  0  0  0  0  0
   -2.1012    3.9200    0.0000 N   0  0  0  0  0  0  0  0  0  0  0  0
    2.1012   -3.9200    0.0000 N   0  0  0  0  0  0  0  0  0  0  0  0
   -2.1012   -3.9200    0.0000 N   0  0  0  0  0  0  0  0  0  0  0  0
    1.4800    1.4800    4.2200 N   0  0  0  0  0  0  0  0  0  0  0  0
   -1.4800    1.4800    4.2200 N   0  0  0  0  0  0  0  0  0  0  0  0
    1.4800   -1.4800    4.2200 N   0  0  0  0  0  0  0  0  0  0  0  0
   -1.4800   -1.4800    4.2200 N   0  0  0  0  0  0  0  0  0  0  0  0
    4.2200    1.4800    1.4800 N   0  0  0  0  0  0  0  0  0  0  0  0
    4.2200   -1.4800    1.4800 N   0  0  0  0  0  0  0  0  0  0  0  0
    4.2200    1.4800   -1.4800 N   0  0  0  0  0  0  0  0  0  0  0  0
    4.2200   -1.4800   -1.4800 N   0  0  0  0  0  0  0  0  0  0  0  0
   -4.2200    1.4800    1.4800 N   0  0  0  0  0  0  0  0  0  0  0  0
   -4.2200   -1.4800    1.4800 N   0  0  0  0  0  0  0  0  0  0  0  0
   -4.2200    1.4800   -1.4800 N   0  0  0  0  0  0  0  0  0  0  0  0
   -4.2200   -1.4800   -1.4800 N   0  0  0  0  0  0  0  0  0  0  0  0
  1  2  1  0  0  0  0
  2  3  1  0  0  0  0
  3  4  1  0  0  0  0
  4  5  4  0  0  0  0
  4  6  1  0  0  0  0
  6  7  1  0  0  0  0
  7  8  1  0  0  0  0
  8  9  1  0  0  0  0
 12 13  1  0  0  0  0
 12 14  1  0  0  0  0
  6 15  1  0  0  0  0
 10 15  1  0  0  0  0
 14 15  1  0  0  0  0
  2 16  1  0  0  0  0
 16 17  1  0  0  0  0
  2 19  1  0  0  0  0
 18 19  1  0  0  0  0
  1 20  1  0  0  0  0
  1 21  1  0  0  0  0
  1 22  1  0  0  0  0
  3 23  1  0  0  0  0
  7 24  1  0  0  0  0
  8 25  1  0  0  0  0
  9 26  1  0  0  0  0
 13 28  1  0  0  0  0
 13 30  1  0  0  0  0
 16 31  1  0  0  0  0
 17 33  1  0  0  0  0
 17 34  1  0  0  0  0
 18 35  1  0  0  0  0
 18 36  1  0  0  0  0
 19 37  1  0  0  0  0
 13 38  1  0  0  0  0
 10 43  1  0  0  0  0
 12 44  1  0  0  0  0
 16 46  1  0  0  0  0
 16 59  1  0  0  0  0
 11 67  2  0  0  0  0
 12 67  1  0  0  0  0
  8 69  1  0  0  0  0
  9 69  1  0  0  0  0
  1 70  1  0  0  0  0
 20 70  1  0  0  0  0
 17 72  2  0  0  0  0
 18 72  1  0  0  0  0
 13 74  1  0  0  0  0
 29 74  1  0  0  0  0
 38 74  2  0  0  0  0
 39 75  3  0  0  0  0
 40 76  3  0  0  0  0
 41 77  3  0  0  0  0
 42 78  3  0  0  0  0
  9 79  1  0  0  0  0
 10 79  1  0  0  0  0
 43 79  2  0  0  0  0
 44 80  3  0  0  0  0
 45 81  3  0  0  0  0
 46 82  3  0  0  0  0
 47 83  3  0  0  0  0
 48 84  3  0  0  0  0
 49 85  3  0  0  0  0
 50 86  3  0  0  0  0
 51 87  3  0  0  0  0
 52 88  3  0  0  0  0
 53 89  3  0  0  0  0
 54 90  3  0  0  0  0
 55 91  3  0  0  0  0
 56 92  3  0  0  0  0
 57 93  3  0  0  0  0
 58 94  3  0  0  0  0
 59 95  3  0  0  0  0
 60 96  3  0  0  0  0
 61 97  3  0  0  0  0
 62 98  3  0  0  0  0
 63 99  3  0  0  0  0
 64100  3  0  0  0  0
 65101  3  0  0  0  0
 66102  3  0  0  0  0
 11103  1  0  0  0  0
 27103  1  0  0  0  0
 67103  1  0  0  0  0
 68104  3  0  0  0  0
  9105  1  0  0  0  0
 69105  2  0  0  0  0
 70106  3  0  0  0  0
 71107  3  0  0  0  0
 17108  1  0  0  0  0
 18108  1  0  0  0  0
 72108  1  0  0  0  0
 73109  3  0  0  0  0
M  END
