 xtb: 6.7.1pre (5071a88)
          08312622243D

109147  0     0  0            999 V2000
    1.2534    1.9892   12.5763 C   0  0  0  0  0  0  0  0  0  0  0  0
    0.9129    1.9838   11.0854 C   0  0  0  0  0  0  0  0  0  0  0  0
    0.2630    0.7194   10.8082 N   0  0  0  0  0  0  0  0  0  0  0  0
   -0.2888    0.3748    9.6256 C   0  0  0  0  0  0  0  0  0  0  0  0
   -0.3423    1.1040    8.6492 O   0  0  0  0  0  0  0  0  0  0  0  0
   -0.8490   -1.0096    9.6078 C   0  0  0  0  0  0  0  0  0  0  0  0
   -1.3597   -1.5128    8.4192 C   0  0  0  0  0  0  0  0  0  0  0  0
   -1.8975   -2.7939    8.3265 C   0  0  0  0  0  0  0  0  0  0  0  0
   -1.9537   -3.6325    9.4243 C   0  0  0  0  0  0  0  0  0  0  0  0
   -1.4514   -3.1413   10.6182 C   0  0  0  0  0  0  0  0  0  0  0  0
   -1.3568   -3.6768   11.8816 N   0  0  0  0  0  0  0  0  0  0  0  0
   -0.7768   -2.7292   12.6785 C   0  0  0  0  0  0  0  0  0  0  0  0
   -0.5330   -2.9500   14.1249 C   0  0  0  0  0  0  0  0  0  0  0  0
   -0.4887   -1.6408   12.0269 N   0  0  0  0  0  0  0  0  0  0  0  0
   -0.8963   -1.8467   10.7273 C   0  0  0  0  0  0  0  0  0  0  0  0
    2.1883    2.1753   10.2049 C   0  0  0  0  0  0  0  0  0  0  0  0
    1.8370    3.3329    9.2735 C   0  0  0  0  0  0  0  0  0  0  0  0
    0.8392    4.1211   10.1276 C   0  0  0  0  0  0  0  0  0  0  0  0
    0.0240    3.1143   10.7927 N   0  0  0  0  0  0  0  0  0  0  0  0
    1.6817    2.9470   12.8545 H   0  0  0  0  0  0  0  0  0  0  0  0
    0.3451    1.8378   13.1529 H   0  0  0  0  0  0  0  0  0  0  0  0
    1.9630    1.1972   12.8046 H   0  0  0  0  0  0  0  0  0  0  0  0
    0.2013    0.0440   11.5624 H   0  0  0  0  0  0  0  0  0  0  0  0
   -1.3243   -0.8727    7.5502 H   0  0  0  0  0  0  0  0  0  0  0  0
   -2.2790   -3.1343    7.3759 H   0  0  0  0  0  0  0  0  0  0  0  0
   -2.3710   -4.6265    9.3586 H   0  0  0  0  0  0  0  0  0  0  0  0
   -1.6657   -4.5899   12.1699 H   0  0  0  0  0  0  0  0  0  0  0  0
    0.1249   -3.8046   14.2790 H   0  0  0  0  0  0  0  0  0  0  0  0
   -0.0712   -2.0633   14.5484 H   0  0  0  0  0  0  0  0  0  0  0  0
   -1.4734   -3.1423   14.6414 H   0  0  0  0  0  0  0  0  0  0  0  0
    2.4169    1.2603    9.6629 H   0  0  0  0  0  0  0  0  0  0  0  0
    3.0380    2.4316   10.8382 H   0  0  0  0  0  0  0  0  0  0  0  0
    2.7031    3.9210    8.9762 H   0  0  0  0  0  0  0  0  0  0  0  0
    1.3305    2.9524    8.3867 H   0  0  0  0  0  0  0  0  0  0  0  0
    1.3695    4.6928   10.8977 H   0  0  0  0  0  0  0  0  0  0  0  0
    0.2152    4.8030    9.5523 H   0  0  0  0  0  0  0  0  0  0  0  0
   -0.6824    2.7936   10.1373 H   0  0  0  0  0  0  0  0  0  0  0  0
    3.4412   -1.4815    1.6779 B   0  0  0  0  0  0  0  0  0  0  0  0
    3.4410    1.1120    1.0259 N   0  0  0  0  0  0  0  0  0  0  0  0
    2.5349    2.3737   -1.1633 B   0  0  0  0  0  0  0  0  0  0  0  0
    2.3002   -0.6099   -2.6767 N   0  0  0  0  0  0  0  0  0  0  0  0
    0.6695   -3.6056    2.7074 B   0  0  0  0  0  0  0  0  0  0  0  0
   -2.9533   -2.6899    1.7067 N   0  0  0  0  0  0  0  0  0  0  0  0
   -1.0617    4.0478    1.9354 B   0  0  0  0  0  0  0  0  0  0  0  0
   -0.6073    0.0629   -3.8955 N   0  0  0  0  0  0  0  0  0  0  0  0
   -0.4613    1.4929   -4.0233 B   0  0  0  0  0  0  0  0  0  0  0  0
    1.2145   -3.7701   -1.7350 N   0  0  0  0  0  0  0  0  0  0  0  0
   -3.8518    2.2036   -0.4324 B   0  0  0  0  0  0  0  0  0  0  0  0
   -2.7773    2.7687   -1.1376 N   0  0  0  0  0  0  0  0  0  0  0  0
    1.4224    0.8790   -4.8195 B   0  0  0  0  0  0  0  0  0  0  0  0
   -0.2635    3.3139    2.9297 N   0  0  0  0  0  0  0  0  0  0  0  0
    0.9083   -2.8479   -2.7982 B   0  0  0  0  0  0  0  0  0  0  0  0
   -0.4982    3.7711   -0.9096 N   0  0  0  0  0  0  0  0  0  0  0  0
   -0.8350    2.1267    3.3643 B   0  0  0  0  0  0  0  0  0  0  0  0
    1.6263   -1.3291    3.5432 N   0  0  0  0  0  0  0  0  0  0  0  0
   -0.2470    3.4936   -2.2818 B   0  0  0  0  0  0  0  0  0  0  0  0
    1.2743    0.0081    3.8724 N   0  0  0  0  0  0  0  0  0  0  0  0
   -1.5890   -0.5273   -3.0510 B   0  0  0  0  0  0  0  0  0  0  0  0
   -3.8475    1.7518    0.8861 N   0  0  0  0  0  0  0  0  0  0  0  0
    0.3165    4.4695    1.2998 B   0  0  0  0  0  0  0  0  0  0  0  0
    0.0083   -0.0854    4.5078 N   0  0  0  0  0  0  0  0  0  0  0  0
   -2.7285    2.1917    1.6702 B   0  0  0  0  0  0  0  0  0  0  0  0
    3.7676   -0.1266   -0.6958 N   0  0  0  0  0  0  0  0  0  0  0  0
   -2.2630   -3.6635    0.9956 B   0  0  0  0  0  0  0  0  0  0  0  0
    1.0297    3.6928    2.3431 N   0  0  0  0  0  0  0  0  0  0  0  0
   -1.8527   -0.8327    3.2524 B   0  0  0  0  0  0  0  0  0  0  0  0
   -2.4394   -3.6068   -0.4640 N   0  0  0  0  0  0  0  0  0  0  0  0
    3.0190   -1.0579   -1.4504 B   0  0  0  0  0  0  0  0  0  0  0  0
   -3.1618   -1.2588   -0.3682 N   0  0  0  0  0  0  0  0  0  0  0  0
    2.0148    2.8946    1.6649 B   0  0  0  0  0  0  0  0  0  0  0  0
   -0.4996   -2.8752   -2.4256 N   0  0  0  0  0  0  0  0  0  0  0  0
   -1.6663   -2.0883   -2.4799 B   0  0  0  0  0  0  0  0  0  0  0  0
    0.5787    3.9588   -0.0014 N   0  0  0  0  0  0  0  0  0  0  0  0
    1.0965    2.9968   -3.0853 B   0  0  0  0  0  0  0  0  0  0  0  0
    0.0636   -4.3923    1.7119 N   0  0  0  0  0  0  0  0  0  0  0  0
   -1.7931    3.4461   -0.3180 B   0  0  0  0  0  0  0  0  0  0  0  0
   -2.0310    3.3915    1.1191 N   0  0  0  0  0  0  0  0  0  0  0  0
    1.4530   -4.2389    1.4994 B   0  0  0  0  0  0  0  0  0  0  0  0
   -0.8313    0.9939    4.2558 N   0  0  0  0  0  0  0  0  0  0  0  0
   -2.6651   -2.3963   -1.1724 B   0  0  0  0  0  0  0  0  0  0  0  0
   -1.0843   -4.5094    0.9732 N   0  0  0  0  0  0  0  0  0  0  0  0
   -2.5010    0.5096   -2.0656 B   0  0  0  0  0  0  0  0  0  0  0  0
    2.3451   -3.8992    0.4627 N   0  0  0  0  0  0  0  0  0  0  0  0
    3.8985   -0.2169    0.7959 B   0  0  0  0  0  0  0  0  0  0  0  0
    1.9318    1.9848   -2.3772 N   0  0  0  0  0  0  0  0  0  0  0  0
    1.0149    2.3111   -4.5355 B   0  0  0  0  0  0  0  0  0  0  0  0
   -4.1933    0.8207   -0.3079 N   0  0  0  0  0  0  0  0  0  0  0  0
   -1.3324    2.4865   -3.0368 B   0  0  0  0  0  0  0  0  0  0  0  0
   -2.3576    1.9537   -2.2411 N   0  0  0  0  0  0  0  0  0  0  0  0
    3.0629   -2.6583    0.6319 B   0  0  0  0  0  0  0  0  0  0  0  0
    2.3361   -3.6664   -0.9587 N   0  0  0  0  0  0  0  0  0  0  0  0
    2.1911    0.5022    2.8809 B   0  0  0  0  0  0  0  0  0  0  0  0
   -2.0556    0.5505    3.6506 N   0  0  0  0  0  0  0  0  0  0  0  0
   -1.1035   -4.1866   -0.4545 B   0  0  0  0  0  0  0  0  0  0  0  0
   -3.2209    0.0431   -0.9252 N   0  0  0  0  0  0  0  0  0  0  0  0
    3.4397    1.2607   -0.4261 B   0  0  0  0  0  0  0  0  0  0  0  0
    2.5610    1.6003    2.0243 N   0  0  0  0  0  0  0  0  0  0  0  0
    1.4841   -1.5127   -3.4785 B   0  0  0  0  0  0  0  0  0  0  0  0
   -2.1273    1.7030    2.8245 N   0  0  0  0  0  0  0  0  0  0  0  0
    2.0488    0.7504   -3.1399 B   0  0  0  0  0  0  0  0  0  0  0  0
   -2.7420   -1.3847    2.3383 N   0  0  0  0  0  0  0  0  0  0  0  0
    0.6747   -0.4842   -4.4404 B   0  0  0  0  0  0  0  0  0  0  0  0
   -0.1660   -3.7488   -1.3591 N   0  0  0  0  0  0  0  0  0  0  0  0
    0.4580   -2.1618    3.4589 B   0  0  0  0  0  0  0  0  0  0  0  0
   -0.6178   -1.2683    3.8565 N   0  0  0  0  0  0  0  0  0  0  0  0
   -3.2351   -1.4759    1.0135 B   0  0  0  0  0  0  0  0  0  0  0  0
    2.6466   -0.8976    2.6741 N   0  0  0  0  0  0  0  0  0  0  0  0
    1.8673    3.3345    0.0014 B   0  0  0  0  0  0  0  0  0  0  0  0
    2.8752   -2.3263   -0.7597 N   0  0  0  0  0  0  0  0  0  0  0  0
  1  2  1  0  0  0  0
  2  3  1  0  0  0  0
  3  4  4  0  0  0  0
  4  5  2  0  0  0  0
  4  6  1  0  0  0  0
  6  7  4  0  0  0  0
  7  8  4  0  0  0  0
  8  9  4  0  0  0  0
  9 10  4  0  0  0  0
 10 11  1  0  0  0  0
 11 12  4  0  0  0  0
 12 13  1  0  0  0  0
 12 14  2  0  0  0  0
  6 15  4  0  0  0  0
 10 15  4  0  0  0  0
 14 15  1  0  0  0  0
  2 16  1  0  0  0  0
 16 17  1  0  0  0  0
 17 18  1  0  0  0  0
  2 19  1  0  0  0  0
 18 19  1  0  0  0  0
  1 20  1  0  0  0  0
  1 21  1  0  0  0  0
  1 22  1  0  0  0  0
  3 23  1  0  0  0  0
  7 24  1  0  0  0  0
  8 25  1  0  0  0  0
  9 26  1  0  0  0  0
 11 27  1  0  0  0  0
 13 28  1  0  0  0  0
 13 29  1  0  0  0  0
 13 30  1  0  0  0  0
 16 31  1  0  0  0  0
 16 32  1  0  0  0  0
 17 33  1  0  0  0  0
 17 34  1  0  0  0  0
 18 35  1  0  0  0  0
 18 36  1  0  0  0  0
 19 37  1  0  0  0  0
 45 46  1  0  0  0  0
 48 49  1  0  0  0  0
 44 51  1  0  0  0  0
 47 52  1  0  0  0  0
 51 54  1  0  0  0  0
 53 56  1  0  0  0  0
 55 57  1  0  0  0  0
 45 58  1  0  0  0  0
 48 59  1  0  0  0  0
 44 60  1  0  0  0  0
 57 61  1  0  0  0  0
 59 62  1  0  0  0  0
 43 64  1  0  0  0  0
 51 65  1  0  0  0  0
 60 65  1  0  0  0  0
 64 67  1  0  0  0  0
 41 68  1  0  0  0  0
 63 68  1  0  0  0  0
 65 70  1  0  0  0  0
 52 71  1  0  0  0  0
 58 72  1  0  0  0  0
 71 72  1  0  0  0  0
 53 73  1  0  0  0  0
 60 73  1  0  0  0  0
 56 74  1  0  0  0  0
 42 75  1  0  0  0  0
 49 76  1  0  0  0  0
 53 76  1  0  0  0  0
 44 77  1  0  0  0  0
 62 77  1  0  0  0  0
 76 77  1  0  0  0  0
 42 78  1  0  0  0  0
 75 78  1  0  0  0  0
 54 79  1  0  0  0  0
 61 79  1  0  0  0  0
 67 80  1  0  0  0  0
 69 80  1  0  0  0  0
 72 80  1  0  0  0  0
 64 81  1  0  0  0  0
 75 81  1  0  0  0  0
 58 82  1  0  0  0  0
 78 83  1  0  0  0  0
 38 84  1  0  0  0  0
 39 84  1  0  0  0  0
 63 84  1  0  0  0  0
 40 85  1  0  0  0  0
 74 85  1  0  0  0  0
 46 86  1  0  0  0  0
 50 86  1  0  0  0  0
 74 86  1  0  0  0  0
 48 87  1  0  0  0  0
 59 87  1  0  0  0  0
 46 88  1  0  0  0  0
 56 88  1  0  0  0  0
 49 89  1  0  0  0  0
 82 89  1  0  0  0  0
 88 89  1  0  0  0  0
 38 90  1  0  0  0  0
 83 90  1  0  0  0  0
 47 91  1  0  0  0  0
 83 91  1  0  0  0  0
 57 92  1  0  0  0  0
 66 93  1  0  0  0  0
 79 93  1  0  0  0  0
 67 94  1  0  0  0  0
 81 94  1  0  0  0  0
 69 95  1  0  0  0  0
 82 95  1  0  0  0  0
 87 95  1  0  0  0  0
 39 96  1  0  0  0  0
 40 96  1  0  0  0  0
 63 96  1  0  0  0  0
 39 97  1  0  0  0  0
 70 97  1  0  0  0  0
 92 97  1  0  0  0  0
 41 98  1  0  0  0  0
 52 98  1  0  0  0  0
 54 99  1  0  0  0  0
 62 99  1  0  0  0  0
 93 99  1  0  0  0  0
 41100  1  0  0  0  0
 50100  1  0  0  0  0
 85100  1  0  0  0  0
 43101  1  0  0  0  0
 66101  1  0  0  0  0
 45102  1  0  0  0  0
 50102  1  0  0  0  0
 98102  1  0  0  0  0
 47103  1  0  0  0  0
 71103  1  0  0  0  0
 94103  1  0  0  0  0
 42104  1  0  0  0  0
 55104  1  0  0  0  0
 61105  1  0  0  0  0
 66105  1  0  0  0  0
104105  1  0  0  0  0
 43106  1  0  0  0  0
 69106  1  0  0  0  0
101106  1  0  0  0  0
 38107  1  0  0  0  0
 55107  1  0  0  0  0
 92107  1  0  0  0  0
 40108  1  0  0  0  0
 70108  1  0  0  0  0
 73108  1  0  0  0  0
 68109  1  0  0  0  0
 90109  1  0  0  0  0
 91109  1  0  0  0  0
M  END
