 xtb: 6.7.1pre (5071a88)
          08312618253D

109 90  0     0  0            999 V2000
   -2.1020    2.0765    0.3863 C   0  0  0  0  0  0  0  0  0  0  0  0
   -1.6724    0.6513   -0.0250 C   0  0  0  0  0  0  0  0  0  0  0  0
   -2.4785    0.1503   -1.2245 C   0  0  0  0  0  0  0  0  0  0  0  0
   -3.7413   -0.4560   -0.6216 C   0  0  0  0  0  0  0  0  0  0  0  0
   -3.4759   -0.5663    0.8764 C   0  0  0  0  0  0  0  0  0  0  0  0
   -2.0395   -0.2943    1.0718 N   0  0  0  0  0  0  0  0  0  0  0  0
   -1.2978   -1.5914    1.0505 C   0  0  0  0  0  0  0  0  0  0  0  0
    0.2260   -1.4138    1.0148 C   0  0  0  0  0  0  0  0  0  0  0  0
    0.9798   -2.2940    1.5941 N   0  0  0  0  0  0  0  0  0  0  0  0
    2.3418   -2.3463    1.6092 N   0  0  0  0  0  0  0  0  0  0  0  0
    3.3851   -1.6703    1.0093 C   0  0  0  0  0  0  0  0  0  0  0  0
    4.5313   -2.0761    1.2289 O   0  0  0  0  0  0  0  0  0  0  0  0
    3.2351   -0.4980    0.1328 C   0  0  0  0  0  0  0  0  0  0  0  0
    1.9836    0.0520   -0.1381 C   0  0  0  0  0  0  0  0  0  0  0  0
    0.6909   -0.3079    0.2410 C   0  0  0  0  0  0  0  0  0  0  0  0
   -0.1937    0.6180   -0.2665 C   0  0  0  0  0  0  0  0  0  0  0  0
    0.5319    1.5104   -1.0139 N   0  0  0  0  0  0  0  0  0  0  0  0
    1.8723    1.1895   -0.9426 C   0  0  0  0  0  0  0  0  0  0  0  0
    2.9883    1.8081   -1.5125 C   0  0  0  0  0  0  0  0  0  0  0  0
    4.2316    1.2389   -1.2380 C   0  0  0  0  0  0  0  0  0  0  0  0
    4.3673    0.1137   -0.4337 C   0  0  0  0  0  0  0  0  0  0  0  0
    5.3287    1.8006   -1.7638 F   0  0  0  0  0  0  0  0  0  0  0  0
   -3.1764    2.1531    0.5852 H   0  0  0  0  0  0  0  0  0  0  0  0
   -1.5734    2.4045    1.2898 H   0  0  0  0  0  0  0  0  0  0  0  0
   -1.8789    2.8027   -0.4044 H   0  0  0  0  0  0  0  0  0  0  0  0
   -2.7184    0.9459   -1.9387 H   0  0  0  0  0  0  0  0  0  0  0  0
   -1.9377   -0.6270   -1.7803 H   0  0  0  0  0  0  0  0  0  0  0  0
   -4.6117    0.1809   -0.8130 H   0  0  0  0  0  0  0  0  0  0  0  0
   -3.9381   -1.4381   -1.0650 H   0  0  0  0  0  0  0  0  0  0  0  0
   -3.7963   -1.5338    1.2806 H   0  0  0  0  0  0  0  0  0  0  0  0
   -4.0593    0.1915    1.4128 H   0  0  0  0  0  0  0  0  0  0  0  0
   -1.5514   -2.1618    1.9524 H   0  0  0  0  0  0  0  0  0  0  0  0
   -1.5709   -2.2013    0.1794 H   0  0  0  0  0  0  0  0  0  0  0  0
    2.6893   -3.1245    2.1650 H   0  0  0  0  0  0  0  0  0  0  0  0
    0.1579    2.3051   -1.5161 H   0  0  0  0  0  0  0  0  0  0  0  0
    2.9104    2.6901   -2.1375 H   0  0  0  0  0  0  0  0  0  0  0  0
    5.3620   -0.2823   -0.2451 H   0  0  0  0  0  0  0  0  0  0  0  0
    2.1012    0.0000    3.3450 B   0  0  0  0  0  0  0  0  0  0  0  0
   -2.1012    0.0000    3.3450 B   0  0  0  0  0  0  0  0  0  0  0  0
    0.0000    2.1012    3.3450 B   0  0  0  0  0  0  0  0  0  0  0  0
    0.0000   -2.1012    3.3450 B   0  0  0  0  0  0  0  0  0  0  0  0
    3.3450    2.1012    0.0000 B   0  0  0  0  0  0  0  0  0  0  0  0
    3.3450   -2.1012    0.0000 B   0  0  0  0  0  0  0  0  0  0  0  0
    3.3450    0.0000    2.1012 B   0  0  0  0  0  0  0  0  0  0  0  0
    3.3450    0.0000   -2.1012 B   0  0  0  0  0  0  0  0  0  0  0  0
   -3.3450    2.1012    0.0000 B   0  0  0  0  0  0  0  0  0  0  0  0
   -3.3450   -2.1012    0.0000 B   0  0  0  0  0  0  0  0  0  0  0  0
   -3.3450    0.0000    2.1012 B   0  0  0  0  0  0  0  0  0  0  0  0
   -3.3450    0.0000   -2.1012 B   0  0  0  0  0  0  0  0  0  0  0  0
    2.1012    0.0000   -3.3450 B   0  0  0  0  0  0  0  0  0  0  0  0
   -2.1012    0.0000   -3.3450 B   0  0  0  0  0  0  0  0  0  0  0  0
    0.0000    2.1012   -3.3450 B   0  0  0  0  0  0  0  0  0  0  0  0
    0.0000   -2.1012   -3.3450 B   0  0  0  0  0  0  0  0  0  0  0  0
    0.0000    3.3450    2.1012 B   0  0  0  0  0  0  0  0  0  0  0  0
    0.0000    3.3450   -2.1012 B   0  0  0  0  0  0  0  0  0  0  0  0
    0.0000   -3.3450    2.1012 B   0  0  0  0  0  0  0  0  0  0  0  0
    0.0000   -3.3450   -2.1012 B   0  0  0  0  0  0  0  0  0  0  0  0
    2.1012    3.3450    0.0000 B   0  0  0  0  0  0  0  0  0  0  0  0
   -2.1012    3.3450    0.0000 B   0  0  0  0  0  0  0  0  0  0  0  0
    2.1012   -3.3450    0.0000 B   0  0  0  0  0  0  0  0  0  0  0  0
   -2.1012   -3.3450    0.0000 B   0  0  0  0  0  0  0  0  0  0  0  0
    1.4800    1.4800    3.5800 B   0  0  0  0  0  0  0  0  0  0  0  0
   -1.4800    1.4800    3.5800 B   0  0  0  0  0  0  0  0  0  0  0  0
    1.4800   -1.4800    3.5800 B   0  0  0  0  0  0  0  0  0  0  0  0
   -1.4800   -1.4800    3.5800 B   0  0  0  0  0  0  0  0  0  0  0  0
    3.5800    1.4800    1.4800 B   0  0  0  0  0  0  0  0  0  0  0  0
    3.5800   -1.4800    1.4800 B   0  0  0  0  0  0  0  0  0  0  0  0
    3.5800    1.4800   -1.4800 B   0  0  0  0  0  0  0  0  0  0  0  0
    3.5800   -1.4800   -1.4800 B   0  0  0  0  0  0  0  0  0  0  0  0
   -3.5800    1.4800    1.4800 B   0  0  0  0  0  0  0  0  0  0  0  0
   -3.5800   -1.4800    1.4800 B   0  0  0  0  0  0  0  0  0  0  0  0
   -3.5800    1.4800   -1.4800 B   0  0  0  0  0  0  0  0  0  0  0  0
   -3.5800   -1.4800   -1.4800 B   0  0  0  0  0  0  0  0  0  0  0  0
    2.1012    0.0000    3.9200 N   0  0  0  0  0  0  0  0  0  0  0  0
   -2.1012    0.0000    3.9200 N   0  0  0  0  0  0  0  0  0  0  0  0
    0.0000    2.1012    3.9200 N   0  0  0  0  0  0  0  0  0  0  0  0
    0.0000   -2.1012    3.9200 N   0  0  0  0  0  0  0  0  0  0  0  0
    3.9200    2.1012    0.0000 N   0  0  0  0  0  0  0  0  0  0  0  0
    3.9200   -2.1012    0.0000 N   0  0  0  0  0  0  0  0  0  0  0  0
    3.9200    0.0000    2.1012 N   0  0  0  0  0  0  0  0  0  0  0  0
    3.9200    0.0000   -2.1012 N   0  0  0  0  0  0  0  0  0  0  0  0
   -3.9200    2.1012    0.0000 N   0  0  0  0  0  0  0  0  0  0  0  0
   -3.9200   -2.1012    0.0000 N   0  0  0  0  0  0  0  0  0  0  0  0
   -3.9200    0.0000    2.1012 N   0  0  0  0  0  0  0  0  0  0  0  0
   -3.9200    0.0000   -2.1012 N   0  0  0  0  0  0  0  0  0  0  0  0
    2.1012    0.0000   -3.9200 N   0  0  0  0  0  0  0  0  0  0  0  0
   -2.1012    0.0000   -3.9200 N   0  0  0  0  0  0  0  0  0  0  0  0
    0.0000    2.1012   -3.9200 N   0  0  0  0  0  0  0  0  0  0  0  0
    0.0000   -2.1012   -3.9200 N   0  0  0  0  0  0  0  0  0  0  0  0
    0.0000    3.9200    2.1012 N   0  0  0  0  0  0  0  0  0  0  0  0
    0.0000    3.9200   -2.1012 N   0  0  0  0  0  0  0  0  0  0  0  0
    0.0000   -3.9200    2.1012 N   0  0  0  0  0  0  0  0  0  0  0  0
    0.0000   -3.9200   -2.1012 N   0  0  0  0  0  0  0  0  0  0  0  0
    2.1012    3.9200    0.0000 N   0  0  0  0  0  0  0  0  0  0  0  0
   -2.1012    3.9200    0.0000 N   0  0  0  0  0  0  0  0  0  0  0  0
    2.1012   -3.9200    0.0000 N   0  0  0  0  0  0  0  0  0  0  0  0
   -2.1012   -3.9200    0.0000 N   0  0  0  0  0  0  0  0  0  0  0  0
    1.4800    1.4800    4.2200 N   0  0  0  0  0  0  0  0  0  0  0  0
   -1.4800    1.4800    4.2200 N   0  0  0  0  0  0  0  0  0  0  0  0
    1.4800   -1.4800    4.2200 N   0  0  0  0  0  0  0  0  0  0  0  0
   -1.4800   -1.4800    4.2200 N   0  0  0  0  0  0  0  0  0  0  0  0
    4.2200    1.4800    1.4800 N   0  0  0  0  0  0  0  0  0  0  0  0
    4.2200   -1.4800    1.4800 N   0  0  0  0  0  0  0  0  0  0  0  0
    4.2200    1.4800   -1.4800 N   0  0  0  0  0  0  0  0  0  0  0  0
    4.2200   -1.4800   -1.4800 N   0  0  0  0  0  0  0  0  0  0  0  0
   -4.2200    1.4800    1.4800 N   0  0  0  0  0  0  0  0  0  0  0  0
   -4.2200   -1.4800    1.4800 N   0  0  0  0  0  0  0  0  0  0  0  0
   -4.2200    1.4800   -1.4800 N   0  0  0  0  0  0  0  0  0  0  0  0
   -4.2200   -1.4800   -1.4800 N   0  0  0  0  0  0  0  0  0  0  0  0
  1  2  1  0  0  0  0
  2  3  1  0  0  0  0
  3  4  1  0  0  0  0
  4  5  1  0  0  0  0
  2  6  1  0  0  0  0
  5  6  1  0  0  0  0
  6  7  1  0  0  0  0
  7  8  1  0  0  0  0
  8  9  1  0  0  0  0
  9 10  1  0  0  0  0
 10 11  1  0  0  0  0
 11 13  1  0  0  0  0
 13 14  4  0  0  0  0
  8 15  4  0  0  0  0
 14 15  1  0  0  0  0
  2 16  1  0  0  0  0
 15 16  4  0  0  0  0
 16 17  1  0  0  0  0
 14 18  1  0  0  0  0
 17 18  1  0  0  0  0
 18 19  1  0  0  0  0
 13 21  1  0  0  0  0
 20 21  1  0  0  0  0
  1 24  1  0  0  0  0
  1 25  1  0  0  0  0
  3 26  1  0  0  0  0
  3 27  1  0  0  0  0
  4 28  1  0  0  0  0
  7 32  1  0  0  0  0
  7 33  1  0  0  0  0
 10 34  1  0  0  0  0
 17 35  1  0  0  0  0
 19 36  1  0  0  0  0
 21 37  1  0  0  0  0
 11 43  1  0  0  0  0
  1 46  1  0  0  0  0
  3 49  1  0  0  0  0
  9 56  1  0  0  0  0
  1 59  1  0  0  0  0
 11 67  1  0  0  0  0
 19 68  2  0  0  0  0
 20 68  1  0  0  0  0
  5 71  1  0  0  0  0
  4 73  1  0  0  0  0
 38 74  3  0  0  0  0
 39 75  3  0  0  0  0
 40 76  3  0  0  0  0
 41 77  3  0  0  0  0
 42 78  3  0  0  0  0
 11 79  1  0  0  0  0
 43 79  2  0  0  0  0
 44 80  3  0  0  0  0
 45 81  3  0  0  0  0
 46 82  3  0  0  0  0
 47 83  3  0  0  0  0
  5 84  1  0  0  0  0
 31 84  1  0  0  0  0
 48 84  3  0  0  0  0
 49 85  3  0  0  0  0
 50 86  3  0  0  0  0
 51 87  3  0  0  0  0
 52 88  3  0  0  0  0
 53 89  3  0  0  0  0
 54 90  3  0  0  0  0
 55 91  3  0  0  0  0
 56 92  3  0  0  0  0
 57 93  3  0  0  0  0
 58 94  3  0  0  0  0
 59 95  3  0  0  0  0
 60 96  3  0  0  0  0
 61 97  3  0  0  0  0
 62 98  3  0  0  0  0
 63 99  3  0  0  0  0
 64100  3  0  0  0  0
 65101  3  0  0  0  0
 66102  3  0  0  0  0
 11103  1  0  0  0  0
 12103  4  0  0  0  0
 67103  1  0  0  0  0
 20104  3  0  0  0  0
 68104  1  0  0  0  0
 69105  3  0  0  0  0
 70106  3  0  0  0  0
  5107  1  0  0  0  0
 30107  1  0  0  0  0
 71107  2  0  0  0  0
 72108  3  0  0  0  0
  4109  1  0  0  0  0
 29109  1  0  0  0  0
 73109  2  0  0  0  0
M  END
