 xtb: 6.7.1pre (5071a88)
          08312622213D

109149  0     0  0            999 V2000
   -2.1020    2.0765   10.1804 C   0  0  0  0  0  0  0  0  0  0  0  0
   -1.6724    0.6513    9.7692 C   0  0  0  0  0  0  0  0  0  0  0  0
   -2.4785    0.1503    8.5697 C   0  0  0  0  0  0  0  0  0  0  0  0
   -3.7413   -0.4560    9.1726 C   0  0  0  0  0  0  0  0  0  0  0  0
   -3.4759   -0.5663   10.6705 C   0  0  0  0  0  0  0  0  0  0  0  0
   -2.0395   -0.2943   10.8659 N   0  0  0  0  0  0  0  0  0  0  0  0
   -1.2978   -1.5914   10.8447 C   0  0  0  0  0  0  0  0  0  0  0  0
    0.2260   -1.4138   10.8090 C   0  0  0  0  0  0  0  0  0  0  0  0
    0.9798   -2.2940   11.3882 N   0  0  0  0  0  0  0  0  0  0  0  0
    2.3418   -2.3463   11.4033 N   0  0  0  0  0  0  0  0  0  0  0  0
    3.3851   -1.6703   10.8034 C   0  0  0  0  0  0  0  0  0  0  0  0
    4.5313   -2.0761   11.0231 O   0  0  0  0  0  0  0  0  0  0  0  0
    3.2351   -0.4980    9.9269 C   0  0  0  0  0  0  0  0  0  0  0  0
    1.9836    0.0520    9.6561 C   0  0  0  0  0  0  0  0  0  0  0  0
    0.6909   -0.3079   10.0351 C   0  0  0  0  0  0  0  0  0  0  0  0
   -0.1937    0.6180    9.5276 C   0  0  0  0  0  0  0  0  0  0  0  0
    0.5319    1.5104    8.7802 N   0  0  0  0  0  0  0  0  0  0  0  0
    1.8723    1.1895    8.8515 C   0  0  0  0  0  0  0  0  0  0  0  0
    2.9883    1.8081    8.2816 C   0  0  0  0  0  0  0  0  0  0  0  0
    4.2316    1.2389    8.5561 C   0  0  0  0  0  0  0  0  0  0  0  0
    4.3673    0.1137    9.3604 C   0  0  0  0  0  0  0  0  0  0  0  0
    5.3287    1.8006    8.0303 F   0  0  0  0  0  0  0  0  0  0  0  0
   -3.1764    2.1531   10.3793 H   0  0  0  0  0  0  0  0  0  0  0  0
   -1.5734    2.4045   11.0840 H   0  0  0  0  0  0  0  0  0  0  0  0
   -1.8789    2.8027    9.3897 H   0  0  0  0  0  0  0  0  0  0  0  0
   -2.7184    0.9459    7.8554 H   0  0  0  0  0  0  0  0  0  0  0  0
   -1.9377   -0.6270    8.0138 H   0  0  0  0  0  0  0  0  0  0  0  0
   -4.6117    0.1809    8.9811 H   0  0  0  0  0  0  0  0  0  0  0  0
   -3.9381   -1.4381    8.7291 H   0  0  0  0  0  0  0  0  0  0  0  0
   -3.7963   -1.5338   11.0748 H   0  0  0  0  0  0  0  0  0  0  0  0
   -4.0593    0.1915   11.2069 H   0  0  0  0  0  0  0  0  0  0  0  0
   -1.5514   -2.1618   11.7465 H   0  0  0  0  0  0  0  0  0  0  0  0
   -1.5709   -2.2013    9.9735 H   0  0  0  0  0  0  0  0  0  0  0  0
    2.6893   -3.1245   11.9591 H   0  0  0  0  0  0  0  0  0  0  0  0
    0.1579    2.3051    8.2781 H   0  0  0  0  0  0  0  0  0  0  0  0
    2.9104    2.6901    7.6567 H   0  0  0  0  0  0  0  0  0  0  0  0
    5.3620   -0.2823    9.5491 H   0  0  0  0  0  0  0  0  0  0  0  0
    3.4592   -1.4546    1.6280 B   0  0  0  0  0  0  0  0  0  0  0  0
    3.4564    1.1299    0.9400 N   0  0  0  0  0  0  0  0  0  0  0  0
    2.5399    2.3625   -1.2610 B   0  0  0  0  0  0  0  0  0  0  0  0
    2.2931   -0.6416   -2.7306 N   0  0  0  0  0  0  0  0  0  0  0  0
    0.6905   -3.5611    2.7027 B   0  0  0  0  0  0  0  0  0  0  0  0
   -2.9397   -2.6548    1.7095 N   0  0  0  0  0  0  0  0  0  0  0  0
   -1.0382    4.0851    1.8312 B   0  0  0  0  0  0  0  0  0  0  0  0
   -0.6193    0.0177   -3.9419 N   0  0  0  0  0  0  0  0  0  0  0  0
   -0.4737    1.4453   -4.0917 B   0  0  0  0  0  0  0  0  0  0  0  0
    1.2096   -3.7868   -1.7394 N   0  0  0  0  0  0  0  0  0  0  0  0
   -3.8445    2.2094   -0.4937 B   0  0  0  0  0  0  0  0  0  0  0  0
   -2.7729    2.7636   -1.2118 N   0  0  0  0  0  0  0  0  0  0  0  0
    1.4057    0.8181   -4.8893 B   0  0  0  0  0  0  0  0  0  0  0  0
   -0.2358    3.3642    2.8335 N   0  0  0  0  0  0  0  0  0  0  0  0
    0.8983   -2.8798   -2.8138 B   0  0  0  0  0  0  0  0  0  0  0  0
   -0.4918    3.7666   -1.0101 N   0  0  0  0  0  0  0  0  0  0  0  0
   -0.8060    2.1823    3.2819 B   0  0  0  0  0  0  0  0  0  0  0  0
    1.6561   -1.2744    3.5036 N   0  0  0  0  0  0  0  0  0  0  0  0
   -0.2485    3.4699   -2.3799 B   0  0  0  0  0  0  0  0  0  0  0  0
    1.3087    0.0689    3.8170 N   0  0  0  0  0  0  0  0  0  0  0  0
   -1.5974   -0.5599   -3.0847 B   0  0  0  0  0  0  0  0  0  0  0  0
   -3.8325    1.7768    0.8316 N   0  0  0  0  0  0  0  0  0  0  0  0
    0.3376    4.4960    1.1839 B   0  0  0  0  0  0  0  0  0  0  0  0
    0.0433   -0.0140    4.4567 N   0  0  0  0  0  0  0  0  0  0  0  0
   -2.7088    2.2268    1.6012 B   0  0  0  0  0  0  0  0  0  0  0  0
    3.7727   -0.1326   -0.7655 N   0  0  0  0  0  0  0  0  0  0  0  0
   -2.2534   -3.6394    1.0085 B   0  0  0  0  0  0  0  0  0  0  0  0
    1.0558    3.7334    2.2357 N   0  0  0  0  0  0  0  0  0  0  0  0
   -1.8256   -0.7775    3.2198 B   0  0  0  0  0  0  0  0  0  0  0  0
   -2.4368   -3.6019   -0.4508 N   0  0  0  0  0  0  0  0  0  0  0  0
    3.0187   -1.0737   -1.5028 B   0  0  0  0  0  0  0  0  0  0  0  0
   -3.1580   -1.2526   -0.3843 N   0  0  0  0  0  0  0  0  0  0  0  0
    2.0347    2.9223    1.5617 B   0  0  0  0  0  0  0  0  0  0  0  0
   -0.5074   -2.9001   -2.4328 N   0  0  0  0  0  0  0  0  0  0  0  0
   -1.6735   -2.1129   -2.4916 B   0  0  0  0  0  0  0  0  0  0  0  0
    0.5901    3.9646   -0.1102 N   0  0  0  0  0  0  0  0  0  0  0  0
    1.0903    2.9596   -3.1825 B   0  0  0  0  0  0  0  0  0  0  0  0
    0.0774   -4.3592    1.7213 N   0  0  0  0  0  0  0  0  0  0  0  0
   -1.7840    3.4524   -0.4082 B   0  0  0  0  0  0  0  0  0  0  0  0
   -2.0135    3.4185    1.0316 N   0  0  0  0  0  0  0  0  0  0  0  0
    1.4659   -4.2121    1.4991 B   0  0  0  0  0  0  0  0  0  0  0  0
   -0.7980    1.0642    4.1946 N   0  0  0  0  0  0  0  0  0  0  0  0
   -2.6662   -2.4021   -1.1753 B   0  0  0  0  0  0  0  0  0  0  0  0
   -1.0744   -4.4843    0.9912 N   0  0  0  0  0  0  0  0  0  0  0  0
   -2.5037    0.4914   -2.1091 B   0  0  0  0  0  0  0  0  0  0  0  0
    2.3527   -3.8873    0.4531 N   0  0  0  0  0  0  0  0  0  0  0  0
    3.9123   -0.2024    0.7259 B   0  0  0  0  0  0  0  0  0  0  0  0
    1.9285    1.9570   -2.4651 N   0  0  0  0  0  0  0  0  0  0  0  0
    1.0012    2.2544   -4.6225 B   0  0  0  0  0  0  0  0  0  0  0  0
   -4.1860    0.8290   -0.3475 N   0  0  0  0  0  0  0  0  0  0  0  0
   -1.3389    2.4537   -3.1149 B   0  0  0  0  0  0  0  0  0  0  0  0
   -2.3596    1.9326   -2.3058 N   0  0  0  0  0  0  0  0  0  0  0  0
    3.0731   -2.6455    0.6011 B   0  0  0  0  0  0  0  0  0  0  0  0
    2.3352   -3.6737   -0.9709 N   0  0  0  0  0  0  0  0  0  0  0  0
    2.2179    0.5458    2.8084 B   0  0  0  0  0  0  0  0  0  0  0  0
   -2.0264    0.6119    3.6015 N   0  0  0  0  0  0  0  0  0  0  0  0
   -1.1017   -4.1838   -0.4410 B   0  0  0  0  0  0  0  0  0  0  0  0
   -3.2181    0.0417   -0.9586 N   0  0  0  0  0  0  0  0  0  0  0  0
    3.4478    1.2586   -0.5141 B   0  0  0  0  0  0  0  0  0  0  0  0
    2.5821    1.6330    1.9365 N   0  0  0  0  0  0  0  0  0  0  0  0
    1.4721   -1.5550   -3.5156 B   0  0  0  0  0  0  0  0  0  0  0  0
   -2.1026    1.7542    2.7608 N   0  0  0  0  0  0  0  0  0  0  0  0
    2.0408    0.7119   -3.2115 B   0  0  0  0  0  0  0  0  0  0  0  0
   -2.7209   -1.3417    2.3206 N   0  0  0  0  0  0  0  0  0  0  0  0
    0.6586   -0.5389   -4.4869 B   0  0  0  0  0  0  0  0  0  0  0  0
   -0.1687   -3.7594   -1.3565 N   0  0  0  0  0  0  0  0  0  0  0  0
    0.4856   -2.1056    3.4338 B   0  0  0  0  0  0  0  0  0  0  0  0
   -0.5873   -1.2050    3.8245 N   0  0  0  0  0  0  0  0  0  0  0  0
   -3.2244   -1.4514    1.0003 B   0  0  0  0  0  0  0  0  0  0  0  0
    2.6713   -0.8555    2.6211 N   0  0  0  0  0  0  0  0  0  0  0  0
    1.8786    3.3393   -0.1064 B   0  0  0  0  0  0  0  0  0  0  0  0
    2.8769   -2.3318   -0.7936 N   0  0  0  0  0  0  0  0  0  0  0  0
  1  2  1  0  0  0  0
  2  3  1  0  0  0  0
  3  4  1  0  0  0  0
  4  5  1  0  0  0  0
  2  6  1  0  0  0  0
  5  6  1  0  0  0  0
  6  7  1  0  0  0  0
  7  8  1  0  0  0  0
  8  9  2  0  0  0  0
  9 10  1  0  0  0  0
 10 11  1  0  0  0  0
 11 12  2  0  0  0  0
 11 13  1  0  0  0  0
 13 14  4  0  0  0  0
  8 15  1  0  0  0  0
 14 15  1  0  0  0  0
  2 16  1  0  0  0  0
 15 16  4  0  0  0  0
 16 17  4  0  0  0  0
 14 18  4  0  0  0  0
 17 18  1  0  0  0  0
 18 19  4  0  0  0  0
 19 20  4  0  0  0  0
 13 21  4  0  0  0  0
 20 21  4  0  0  0  0
 20 22  1  0  0  0  0
  1 23  1  0  0  0  0
  1 24  1  0  0  0  0
  1 25  1  0  0  0  0
  3 26  1  0  0  0  0
  3 27  1  0  0  0  0
  4 28  1  0  0  0  0
  4 29  1  0  0  0  0
  5 30  1  0  0  0  0
  5 31  1  0  0  0  0
  7 32  1  0  0  0  0
  7 33  1  0  0  0  0
 10 34  1  0  0  0  0
 17 35  1  0  0  0  0
 19 36  1  0  0  0  0
 21 37  1  0  0  0  0
 45 46  1  0  0  0  0
 48 49  1  0  0  0  0
 44 51  1  0  0  0  0
 47 52  1  0  0  0  0
 51 54  1  0  0  0  0
 53 56  1  0  0  0  0
 55 57  1  0  0  0  0
 45 58  1  0  0  0  0
 48 59  1  0  0  0  0
 44 60  1  0  0  0  0
 57 61  1  0  0  0  0
 59 62  1  0  0  0  0
 43 64  1  0  0  0  0
 51 65  1  0  0  0  0
 60 65  1  0  0  0  0
 64 67  1  0  0  0  0
 41 68  1  0  0  0  0
 63 68  1  0  0  0  0
 65 70  1  0  0  0  0
 52 71  1  0  0  0  0
 58 72  1  0  0  0  0
 71 72  1  0  0  0  0
 53 73  1  0  0  0  0
 60 73  1  0  0  0  0
 56 74  1  0  0  0  0
 42 75  1  0  0  0  0
 49 76  1  0  0  0  0
 53 76  1  0  0  0  0
 44 77  1  0  0  0  0
 62 77  1  0  0  0  0
 76 77  1  0  0  0  0
 42 78  1  0  0  0  0
 75 78  1  0  0  0  0
 54 79  1  0  0  0  0
 61 79  1  0  0  0  0
 67 80  1  0  0  0  0
 69 80  1  0  0  0  0
 72 80  1  0  0  0  0
 64 81  1  0  0  0  0
 75 81  1  0  0  0  0
 58 82  1  0  0  0  0
 78 83  1  0  0  0  0
 38 84  1  0  0  0  0
 39 84  1  0  0  0  0
 63 84  1  0  0  0  0
 40 85  1  0  0  0  0
 74 85  1  0  0  0  0
 46 86  1  0  0  0  0
 50 86  1  0  0  0  0
 74 86  1  0  0  0  0
 48 87  1  0  0  0  0
 59 87  1  0  0  0  0
 46 88  1  0  0  0  0
 56 88  1  0  0  0  0
 49 89  1  0  0  0  0
 82 89  1  0  0  0  0
 88 89  1  0  0  0  0
 38 90  1  0  0  0  0
 83 90  1  0  0  0  0
 47 91  1  0  0  0  0
 83 91  1  0  0  0  0
 57 92  1  0  0  0  0
 66 93  1  0  0  0  0
 79 93  1  0  0  0  0
 67 94  1  0  0  0  0
 81 94  1  0  0  0  0
 69 95  1  0  0  0  0
 82 95  1  0  0  0  0
 87 95  1  0  0  0  0
 39 96  1  0  0  0  0
 40 96  1  0  0  0  0
 63 96  1  0  0  0  0
 39 97  1  0  0  0  0
 70 97  1  0  0  0  0
 92 97  1  0  0  0  0
 41 98  1  0  0  0  0
 52 98  1  0  0  0  0
 54 99  1  0  0  0  0
 62 99  1  0  0  0  0
 93 99  1  0  0  0  0
 41100  1  0  0  0  0
 50100  1  0  0  0  0
 85100  1  0  0  0  0
 43101  1  0  0  0  0
 66101  1  0  0  0  0
 45102  1  0  0  0  0
 50102  1  0  0  0  0
 98102  1  0  0  0  0
 47103  1  0  0  0  0
 71103  1  0  0  0  0
 94103  1  0  0  0  0
 42104  1  0  0  0  0
 55104  1  0  0  0  0
 61105  1  0  0  0  0
 66105  1  0  0  0  0
104105  1  0  0  0  0
 43106  1  0  0  0  0
 69106  1  0  0  0  0
101106  1  0  0  0  0
 38107  1  0  0  0  0
 55107  1  0  0  0  0
 92107  1  0  0  0  0
 40108  1  0  0  0  0
 70108  1  0  0  0  0
 73108  1  0  0  0  0
 68109  1  0  0  0  0
 90109  1  0  0  0  0
 91109  1  0  0  0  0
M  END
