 xtb: 6.7.1pre (5071a88)
          08312618403D

124107  0     0  0            999 V2000
   -5.9228    5.1362    0.6070 C   0  0  0  0  0  0  0  0  0  0  0  0
   -4.5344    4.9605    0.8558 O   0  0  0  0  0  0  0  0  0  0  0  0
   -4.1405    3.5884    0.8876 C   0  0  0  0  0  0  0  0  0  0  0  0
   -3.9547    3.0092   -0.5149 C   0  0  0  0  0  0  0  0  0  0  0  0
   -3.4876    1.6630   -0.4554 O   0  0  0  0  0  0  0  0  0  0  0  0
   -2.1390    1.4168   -0.5020 C   0  0  0  0  0  0  0  0  0  0  0  0
   -1.1451    2.3939   -0.3814 C   0  0  0  0  0  0  0  0  0  0  0  0
    0.2075    2.0796   -0.4250 C   0  0  0  0  0  0  0  0  0  0  0  0
    1.0924    3.0708   -0.2945 N   0  0  0  0  0  0  0  0  0  0  0  0
    2.3853    2.7327   -0.3265 C   0  0  0  0  0  0  0  0  0  0  0  0
    2.8727    1.5011   -0.4889 N   0  0  0  0  0  0  0  0  0  0  0  0
    1.9787    0.5073   -0.6332 C   0  0  0  0  0  0  0  0  0  0  0  0
    2.4406   -0.8205   -0.8476 N   0  0  0  0  0  0  0  0  0  0  0  0
    3.7411   -1.3409   -0.6538 C   0  0  0  0  0  0  0  0  0  0  0  0
    4.1209   -2.4963   -1.3561 C   0  0  0  0  0  0  0  0  0  0  0  0
    5.3698   -3.0892   -1.1515 C   0  0  0  0  0  0  0  0  0  0  0  0
    6.2513   -2.5487   -0.2185 C   0  0  0  0  0  0  0  0  0  0  0  0
    5.8775   -1.4244    0.5169 C   0  0  0  0  0  0  0  0  0  0  0  0
    6.7710   -0.8802    1.4936 C   0  0  0  0  0  0  0  0  0  0  0  0
    7.5200   -0.4227    2.3131 C   0  0  0  0  0  0  0  0  0  0  0  0
    4.6254   -0.8349    0.3076 C   0  0  0  0  0  0  0  0  0  0  0  0
    0.5884    0.7441   -0.5966 C   0  0  0  0  0  0  0  0  0  0  0  0
   -0.4123   -0.2564   -0.7009 C   0  0  0  0  0  0  0  0  0  0  0  0
   -1.7680    0.0715   -0.6583 C   0  0  0  0  0  0  0  0  0  0  0  0
   -2.7967   -0.8306   -0.7409 O   0  0  0  0  0  0  0  0  0  0  0  0
   -2.5100   -2.1929   -1.0480 C   0  0  0  0  0  0  0  0  0  0  0  0
   -2.2570   -3.0064    0.2184 C   0  0  0  0  0  0  0  0  0  0  0  0
   -1.8974   -4.3390   -0.1461 O   0  0  0  0  0  0  0  0  0  0  0  0
   -1.6645   -5.1478    1.0004 C   0  0  0  0  0  0  0  0  0  0  0  0
   -6.1907    4.7739   -0.3890 H   0  0  0  0  0  0  0  0  0  0  0  0
   -6.1452    6.2057    0.6541 H   0  0  0  0  0  0  0  0  0  0  0  0
   -6.5186    4.6246    1.3690 H   0  0  0  0  0  0  0  0  0  0  0  0
   -4.8516    2.9902    1.4706 H   0  0  0  0  0  0  0  0  0  0  0  0
   -3.1933    3.5410    1.4349 H   0  0  0  0  0  0  0  0  0  0  0  0
   -4.9290    2.9720   -1.0152 H   0  0  0  0  0  0  0  0  0  0  0  0
   -3.3400    3.6512   -1.1570 H   0  0  0  0  0  0  0  0  0  0  0  0
   -1.3966    3.4399   -0.2340 H   0  0  0  0  0  0  0  0  0  0  0  0
    3.1064    3.5348   -0.2124 H   0  0  0  0  0  0  0  0  0  0  0  0
    2.0269   -1.1739   -1.7044 H   0  0  0  0  0  0  0  0  0  0  0  0
    3.4455   -2.9480   -2.0784 H   0  0  0  0  0  0  0  0  0  0  0  0
    5.6508   -3.9748   -1.7153 H   0  0  0  0  0  0  0  0  0  0  0  0
    7.2215   -3.0130   -0.0604 H   0  0  0  0  0  0  0  0  0  0  0  0
    8.1825   -0.0143    3.0400 H   0  0  0  0  0  0  0  0  0  0  0  0
    4.3422    0.0246    0.9094 H   0  0  0  0  0  0  0  0  0  0  0  0
   -0.0969   -1.2907   -0.7876 H   0  0  0  0  0  0  0  0  0  0  0  0
   -1.7087   -2.3024   -1.7888 H   0  0  0  0  0  0  0  0  0  0  0  0
   -3.3989   -2.6001   -1.5456 H   0  0  0  0  0  0  0  0  0  0  0  0
   -3.1624   -3.0158    0.8372 H   0  0  0  0  0  0  0  0  0  0  0  0
   -1.4547   -2.5583    0.8149 H   0  0  0  0  0  0  0  0  0  0  0  0
   -0.8375   -4.7437    1.5922 H   0  0  0  0  0  0  0  0  0  0  0  0
   -1.3950   -6.1524    0.6637 H   0  0  0  0  0  0  0  0  0  0  0  0
   -2.5694   -5.2147    1.6120 H   0  0  0  0  0  0  0  0  0  0  0  0
    2.1012    0.0000    3.3450 B   0  0  0  0  0  0  0  0  0  0  0  0
   -2.1012    0.0000    3.3450 B   0  0  0  0  0  0  0  0  0  0  0  0
    0.0000    2.1012    3.3450 B   0  0  0  0  0  0  0  0  0  0  0  0
    0.0000   -2.1012    3.3450 B   0  0  0  0  0  0  0  0  0  0  0  0
    3.3450    2.1012    0.0000 B   0  0  0  0  0  0  0  0  0  0  0  0
    3.3450   -2.1012    0.0000 B   0  0  0  0  0  0  0  0  0  0  0  0
    3.3450    0.0000    2.1012 B   0  0  0  0  0  0  0  0  0  0  0  0
    3.3450    0.0000   -2.1012 B   0  0  0  0  0  0  0  0  0  0  0  0
   -3.3450    2.1012    0.0000 B   0  0  0  0  0  0  0  0  0  0  0  0
   -3.3450   -2.1012    0.0000 B   0  0  0  0  0  0  0  0  0  0  0  0
   -3.3450    0.0000    2.1012 B   0  0  0  0  0  0  0  0  0  0  0  0
   -3.3450    0.0000   -2.1012 B   0  0  0  0  0  0  0  0  0  0  0  0
    2.1012    0.0000   -3.3450 B   0  0  0  0  0  0  0  0  0  0  0  0
   -2.1012    0.0000   -3.3450 B   0  0  0  0  0  0  0  0  0  0  0  0
    0.0000    2.1012   -3.3450 B   0  0  0  0  0  0  0  0  0  0  0  0
    0.0000   -2.1012   -3.3450 B   0  0  0  0  0  0  0  0  0  0  0  0
    0.0000    3.3450    2.1012 B   0  0  0  0  0  0  0  0  0  0  0  0
    0.0000    3.3450   -2.1012 B   0  0  0  0  0  0  0  0  0  0  0  0
    0.0000   -3.3450    2.1012 B   0  0  0  0  0  0  0  0  0  0  0  0
    0.0000   -3.3450   -2.1012 B   0  0  0  0  0  0  0  0  0  0  0  0
    2.1012    3.3450    0.0000 B   0  0  0  0  0  0  0  0  0  0  0  0
   -2.1012    3.3450    0.0000 B   0  0  0  0  0  0  0  0  0  0  0  0
    2.1012   -3.3450    0.0000 B   0  0  0  0  0  0  0  0  0  0  0  0
   -2.1012   -3.3450    0.0000 B   0  0  0  0  0  0  0  0  0  0  0  0
    1.4800    1.4800    3.5800 B   0  0  0  0  0  0  0  0  0  0  0  0
   -1.4800    1.4800    3.5800 B   0  0  0  0  0  0  0  0  0  0  0  0
    1.4800   -1.4800    3.5800 B   0  0  0  0  0  0  0  0  0  0  0  0
   -1.4800   -1.4800    3.5800 B   0  0  0  0  0  0  0  0  0  0  0  0
    3.5800    1.4800    1.4800 B   0  0  0  0  0  0  0  0  0  0  0  0
    3.5800   -1.4800    1.4800 B   0  0  0  0  0  0  0  0  0  0  0  0
    3.5800    1.4800   -1.4800 B   0  0  0  0  0  0  0  0  0  0  0  0
    3.5800   -1.4800   -1.4800 B   0  0  0  0  0  0  0  0  0  0  0  0
   -3.5800    1.4800    1.4800 B   0  0  0  0  0  0  0  0  0  0  0  0
   -3.5800   -1.4800    1.4800 B   0  0  0  0  0  0  0  0  0  0  0  0
   -3.5800    1.4800   -1.4800 B   0  0  0  0  0  0  0  0  0  0  0  0
   -3.5800   -1.4800   -1.4800 B   0  0  0  0  0  0  0  0  0  0  0  0
    2.1012    0.0000    3.9200 N   0  0  0  0  0  0  0  0  0  0  0  0
   -2.1012    0.0000    3.9200 N   0  0  0  0  0  0  0  0  0  0  0  0
    0.0000    2.1012    3.9200 N   0  0  0  0  0  0  0  0  0  0  0  0
    0.0000   -2.1012    3.9200 N   0  0  0  0  0  0  0  0  0  0  0  0
    3.9200    2.1012    0.0000 N   0  0  0  0  0  0  0  0  0  0  0  0
    3.9200   -2.1012    0.0000 N   0  0  0  0  0  0  0  0  0  0  0  0
    3.9200    0.0000    2.1012 N   0  0  0  0  0  0  0  0  0  0  0  0
    3.9200    0.0000   -2.1012 N   0  0  0  0  0  0  0  0  0  0  0  0
   -3.9200    2.1012    0.0000 N   0  0  0  0  0  0  0  0  0  0  0  0
   -3.9200   -2.1012    0.0000 N   0  0  0  0  0  0  0  0  0  0  0  0
   -3.9200    0.0000    2.1012 N   0  0  0  0  0  0  0  0  0  0  0  0
   -3.9200    0.0000   -2.1012 N   0  0  0  0  0  0  0  0  0  0  0  0
    2.1012    0.0000   -3.9200 N   0  0  0  0  0  0  0  0  0  0  0  0
   -2.1012    0.0000   -3.9200 N   0  0  0  0  0  0  0  0  0  0  0  0
    0.0000    2.1012   -3.9200 N   0  0  0  0  0  0  0  0  0  0  0  0
    0.0000   -2.1012   -3.9200 N   0  0  0  0  0  0  0  0  0  0  0  0
    0.0000    3.9200    2.1012 N   0  0  0  0  0  0  0  0  0  0  0  0
    0.0000    3.9200   -2.1012 N   0  0  0  0  0  0  0  0  0  0  0  0
    0.0000   -3.9200    2.1012 N   0  0  0  0  0  0  0  0  0  0  0  0
    0.0000   -3.9200   -2.1012 N   0  0  0  0  0  0  0  0  0  0  0  0
    2.1012    3.9200    0.0000 N   0  0  0  0  0  0  0  0  0  0  0  0
   -2.1012    3.9200    0.0000 N   0  0  0  0  0  0  0  0  0  0  0  0
    2.1012   -3.9200    0.0000 N   0  0  0  0  0  0  0  0  0  0  0  0
   -2.1012   -3.9200    0.0000 N   0  0  0  0  0  0  0  0  0  0  0  0
    1.4800    1.4800    4.2200 N   0  0  0  0  0  0  0  0  0  0  0  0
   -1.4800    1.4800    4.2200 N   0  0  0  0  0  0  0  0  0  0  0  0
    1.4800   -1.4800    4.2200 N   0  0  0  0  0  0  0  0  0  0  0  0
   -1.4800   -1.4800    4.2200 N   0  0  0  0  0  0  0  0  0  0  0  0
    4.2200    1.4800    1.4800 N   0  0  0  0  0  0  0  0  0  0  0  0
    4.2200   -1.4800    1.4800 N   0  0  0  0  0  0  0  0  0  0  0  0
    4.2200    1.4800   -1.4800 N   0  0  0  0  0  0  0  0  0  0  0  0
    4.2200   -1.4800   -1.4800 N   0  0  0  0  0  0  0  0  0  0  0  0
   -4.2200    1.4800    1.4800 N   0  0  0  0  0  0  0  0  0  0  0  0
   -4.2200   -1.4800    1.4800 N   0  0  0  0  0  0  0  0  0  0  0  0
   -4.2200    1.4800   -1.4800 N   0  0  0  0  0  0  0  0  0  0  0  0
   -4.2200   -1.4800   -1.4800 N   0  0  0  0  0  0  0  0  0  0  0  0
  1  2  1  0  0  0  0
  2  3  1  0  0  0  0
  3  4  1  0  0  0  0
  6  7  1  0  0  0  0
  7  8  1  0  0  0  0
  8  9  1  0  0  0  0
  9 10  1  0  0  0  0
 10 11  1  0  0  0  0
 11 12  1  0  0  0  0
 12 13  1  0  0  0  0
 13 14  1  0  0  0  0
 15 16  1  0  0  0  0
 16 17  4  0  0  0  0
 17 18  4  0  0  0  0
 18 19  1  0  0  0  0
 19 20  3  0  0  0  0
 14 21  1  0  0  0  0
 18 21  1  0  0  0  0
  8 22  4  0  0  0  0
 12 22  1  0  0  0  0
 22 23  1  0  0  0  0
  6 24  1  0  0  0  0
 23 24  4  0  0  0  0
 24 25  1  0  0  0  0
 25 26  1  0  0  0  0
  1 30  1  0  0  0  0
  1 31  1  0  0  0  0
  1 32  1  0  0  0  0
  3 33  1  0  0  0  0
  3 34  1  0  0  0  0
  4 35  1  0  0  0  0
  4 36  1  0  0  0  0
 10 38  1  0  0  0  0
 13 39  1  0  0  0  0
 15 40  1  0  0  0  0
 16 41  1  0  0  0  0
 17 42  1  0  0  0  0
 20 43  1  0  0  0  0
 21 44  1  0  0  0  0
 23 45  1  0  0  0  0
 26 46  1  0  0  0  0
 26 47  1  0  0  0  0
 29 50  1  0  0  0  0
 29 51  1  0  0  0  0
 29 52  1  0  0  0  0
 10 57  1  0  0  0  0
 11 57  1  0  0  0  0
  5 61  1  0  0  0  0
  6 61  1  0  0  0  0
  9 73  1  0  0  0  0
 10 73  1  0  0  0  0
  7 74  1  0  0  0  0
 27 76  2  0  0  0  0
 11 83  1  0  0  0  0
 13 84  1  0  0  0  0
 14 84  1  0  0  0  0
  5 87  1  0  0  0  0
 25 88  1  0  0  0  0
 53 89  3  0  0  0  0
 54 90  3  0  0  0  0
 55 91  3  0  0  0  0
 56 92  3  0  0  0  0
 11 93  1  0  0  0  0
 57 93  2  0  0  0  0
 14 94  1  0  0  0  0
 15 94  1  0  0  0  0
 58 94  2  0  0  0  0
 59 95  3  0  0  0  0
 60 96  3  0  0  0  0
  4 97  1  0  0  0  0
  5 97  1  0  0  0  0
 61 97  1  0  0  0  0
 62 98  3  0  0  0  0
 63 99  3  0  0  0  0
 64100  3  0  0  0  0
 65101  3  0  0  0  0
 66102  3  0  0  0  0
 67103  3  0  0  0  0
 68104  3  0  0  0  0
 69105  3  0  0  0  0
 70106  3  0  0  0  0
 71107  3  0  0  0  0
 72108  3  0  0  0  0
  9109  1  0  0  0  0
 10109  1  0  0  0  0
 73109  2  0  0  0  0
 74110  3  0  0  0  0
 75111  3  0  0  0  0
 27112  1  0  0  0  0
 28112  2  0  0  0  0
 76112  1  0  0  0  0
 77113  3  0  0  0  0
 78114  3  0  0  0  0
 79115  3  0  0  0  0
 80116  3  0  0  0  0
 81117  3  0  0  0  0
 21118  1  0  0  0  0
 82118  3  0  0  0  0
 83119  3  0  0  0  0
 14120  1  0  0  0  0
 15120  1  0  0  0  0
 84120  2  0  0  0  0
 85121  3  0  0  0  0
 86122  3  0  0  0  0
  5123  1  0  0  0  0
 87123  2  0  0  0  0
 88124  3  0  0  0  0
M  END
