 xtb: 6.7.1pre (5071a88)
          08312622223D

124162  0     0  0            999 V2000
   -5.9228    5.1362   10.3420 C   0  0  0  0  0  0  0  0  0  0  0  0
   -4.5344    4.9605   10.5909 O   0  0  0  0  0  0  0  0  0  0  0  0
   -4.1405    3.5884   10.6227 C   0  0  0  0  0  0  0  0  0  0  0  0
   -3.9547    3.0092    9.2201 C   0  0  0  0  0  0  0  0  0  0  0  0
   -3.4876    1.6630    9.2797 O   0  0  0  0  0  0  0  0  0  0  0  0
   -2.1390    1.4168    9.2331 C   0  0  0  0  0  0  0  0  0  0  0  0
   -1.1451    2.3939    9.3537 C   0  0  0  0  0  0  0  0  0  0  0  0
    0.2075    2.0796    9.3100 C   0  0  0  0  0  0  0  0  0  0  0  0
    1.0924    3.0708    9.4405 N   0  0  0  0  0  0  0  0  0  0  0  0
    2.3853    2.7327    9.4085 C   0  0  0  0  0  0  0  0  0  0  0  0
    2.8727    1.5011    9.2461 N   0  0  0  0  0  0  0  0  0  0  0  0
    1.9787    0.5073    9.1019 C   0  0  0  0  0  0  0  0  0  0  0  0
    2.4406   -0.8205    8.8875 N   0  0  0  0  0  0  0  0  0  0  0  0
    3.7411   -1.3409    9.0813 C   0  0  0  0  0  0  0  0  0  0  0  0
    4.1209   -2.4963    8.3789 C   0  0  0  0  0  0  0  0  0  0  0  0
    5.3698   -3.0892    8.5836 C   0  0  0  0  0  0  0  0  0  0  0  0
    6.2513   -2.5487    9.5166 C   0  0  0  0  0  0  0  0  0  0  0  0
    5.8775   -1.4244   10.2520 C   0  0  0  0  0  0  0  0  0  0  0  0
    6.7710   -0.8802   11.2286 C   0  0  0  0  0  0  0  0  0  0  0  0
    7.5200   -0.4227   12.0482 C   0  0  0  0  0  0  0  0  0  0  0  0
    4.6254   -0.8349   10.0426 C   0  0  0  0  0  0  0  0  0  0  0  0
    0.5884    0.7441    9.1384 C   0  0  0  0  0  0  0  0  0  0  0  0
   -0.4123   -0.2564    9.0342 C   0  0  0  0  0  0  0  0  0  0  0  0
   -1.7680    0.0715    9.0768 C   0  0  0  0  0  0  0  0  0  0  0  0
   -2.7967   -0.8306    8.9941 O   0  0  0  0  0  0  0  0  0  0  0  0
   -2.5100   -2.1929    8.6870 C   0  0  0  0  0  0  0  0  0  0  0  0
   -2.2570   -3.0064    9.9535 C   0  0  0  0  0  0  0  0  0  0  0  0
   -1.8974   -4.3390    9.5890 O   0  0  0  0  0  0  0  0  0  0  0  0
   -1.6645   -5.1478   10.7354 C   0  0  0  0  0  0  0  0  0  0  0  0
   -6.1907    4.7739    9.3460 H   0  0  0  0  0  0  0  0  0  0  0  0
   -6.1452    6.2057   10.3892 H   0  0  0  0  0  0  0  0  0  0  0  0
   -6.5186    4.6246   11.1040 H   0  0  0  0  0  0  0  0  0  0  0  0
   -4.8516    2.9902   11.2056 H   0  0  0  0  0  0  0  0  0  0  0  0
   -3.1933    3.5410   11.1700 H   0  0  0  0  0  0  0  0  0  0  0  0
   -4.9290    2.9720    8.7199 H   0  0  0  0  0  0  0  0  0  0  0  0
   -3.3400    3.6512    8.5781 H   0  0  0  0  0  0  0  0  0  0  0  0
   -1.3966    3.4399    9.5010 H   0  0  0  0  0  0  0  0  0  0  0  0
    3.1064    3.5348    9.5227 H   0  0  0  0  0  0  0  0  0  0  0  0
    2.0269   -1.1739    8.0307 H   0  0  0  0  0  0  0  0  0  0  0  0
    3.4455   -2.9480    7.6567 H   0  0  0  0  0  0  0  0  0  0  0  0
    5.6508   -3.9748    8.0198 H   0  0  0  0  0  0  0  0  0  0  0  0
    7.2215   -3.0130    9.6746 H   0  0  0  0  0  0  0  0  0  0  0  0
    8.1825   -0.0143   12.7751 H   0  0  0  0  0  0  0  0  0  0  0  0
    4.3422    0.0246   10.6445 H   0  0  0  0  0  0  0  0  0  0  0  0
   -0.0969   -1.2907    8.9474 H   0  0  0  0  0  0  0  0  0  0  0  0
   -1.7087   -2.3024    7.9463 H   0  0  0  0  0  0  0  0  0  0  0  0
   -3.3989   -2.6001    8.1894 H   0  0  0  0  0  0  0  0  0  0  0  0
   -3.1624   -3.0158   10.5723 H   0  0  0  0  0  0  0  0  0  0  0  0
   -1.4547   -2.5583   10.5499 H   0  0  0  0  0  0  0  0  0  0  0  0
   -0.8375   -4.7437   11.3273 H   0  0  0  0  0  0  0  0  0  0  0  0
   -1.3950   -6.1524   10.3987 H   0  0  0  0  0  0  0  0  0  0  0  0
   -2.5694   -5.2147   11.3470 H   0  0  0  0  0  0  0  0  0  0  0  0
    3.4592   -1.4546    1.6280 B   0  0  0  0  0  0  0  0  0  0  0  0
    3.4564    1.1299    0.9400 N   0  0  0  0  0  0  0  0  0  0  0  0
    2.5399    2.3625   -1.2610 B   0  0  0  0  0  0  0  0  0  0  0  0
    2.2931   -0.6416   -2.7306 N   0  0  0  0  0  0  0  0  0  0  0  0
    0.6905   -3.5611    2.7027 B   0  0  0  0  0  0  0  0  0  0  0  0
   -2.9397   -2.6548    1.7095 N   0  0  0  0  0  0  0  0  0  0  0  0
   -1.0382    4.0851    1.8312 B   0  0  0  0  0  0  0  0  0  0  0  0
   -0.6193    0.0177   -3.9419 N   0  0  0  0  0  0  0  0  0  0  0  0
   -0.4737    1.4453   -4.0917 B   0  0  0  0  0  0  0  0  0  0  0  0
    1.2096   -3.7868   -1.7394 N   0  0  0  0  0  0  0  0  0  0  0  0
   -3.8445    2.2094   -0.4937 B   0  0  0  0  0  0  0  0  0  0  0  0
   -2.7729    2.7636   -1.2118 N   0  0  0  0  0  0  0  0  0  0  0  0
    1.4057    0.8181   -4.8893 B   0  0  0  0  0  0  0  0  0  0  0  0
   -0.2358    3.3642    2.8335 N   0  0  0  0  0  0  0  0  0  0  0  0
    0.8983   -2.8798   -2.8138 B   0  0  0  0  0  0  0  0  0  0  0  0
   -0.4918    3.7666   -1.0101 N   0  0  0  0  0  0  0  0  0  0  0  0
   -0.8060    2.1823    3.2819 B   0  0  0  0  0  0  0  0  0  0  0  0
    1.6561   -1.2744    3.5036 N   0  0  0  0  0  0  0  0  0  0  0  0
   -0.2485    3.4699   -2.3799 B   0  0  0  0  0  0  0  0  0  0  0  0
    1.3087    0.0689    3.8170 N   0  0  0  0  0  0  0  0  0  0  0  0
   -1.5974   -0.5599   -3.0847 B   0  0  0  0  0  0  0  0  0  0  0  0
   -3.8325    1.7768    0.8316 N   0  0  0  0  0  0  0  0  0  0  0  0
    0.3376    4.4960    1.1839 B   0  0  0  0  0  0  0  0  0  0  0  0
    0.0433   -0.0140    4.4567 N   0  0  0  0  0  0  0  0  0  0  0  0
   -2.7088    2.2268    1.6012 B   0  0  0  0  0  0  0  0  0  0  0  0
    3.7727   -0.1326   -0.7655 N   0  0  0  0  0  0  0  0  0  0  0  0
   -2.2534   -3.6394    1.0085 B   0  0  0  0  0  0  0  0  0  0  0  0
    1.0558    3.7334    2.2357 N   0  0  0  0  0  0  0  0  0  0  0  0
   -1.8256   -0.7775    3.2198 B   0  0  0  0  0  0  0  0  0  0  0  0
   -2.4368   -3.6019   -0.4508 N   0  0  0  0  0  0  0  0  0  0  0  0
    3.0187   -1.0737   -1.5028 B   0  0  0  0  0  0  0  0  0  0  0  0
   -3.1580   -1.2526   -0.3843 N   0  0  0  0  0  0  0  0  0  0  0  0
    2.0347    2.9223    1.5617 B   0  0  0  0  0  0  0  0  0  0  0  0
   -0.5074   -2.9001   -2.4328 N   0  0  0  0  0  0  0  0  0  0  0  0
   -1.6735   -2.1129   -2.4916 B   0  0  0  0  0  0  0  0  0  0  0  0
    0.5901    3.9646   -0.1102 N   0  0  0  0  0  0  0  0  0  0  0  0
    1.0903    2.9596   -3.1825 B   0  0  0  0  0  0  0  0  0  0  0  0
    0.0774   -4.3592    1.7213 N   0  0  0  0  0  0  0  0  0  0  0  0
   -1.7840    3.4524   -0.4082 B   0  0  0  0  0  0  0  0  0  0  0  0
   -2.0135    3.4185    1.0316 N   0  0  0  0  0  0  0  0  0  0  0  0
    1.4659   -4.2121    1.4991 B   0  0  0  0  0  0  0  0  0  0  0  0
   -0.7980    1.0642    4.1946 N   0  0  0  0  0  0  0  0  0  0  0  0
   -2.6662   -2.4021   -1.1753 B   0  0  0  0  0  0  0  0  0  0  0  0
   -1.0744   -4.4843    0.9912 N   0  0  0  0  0  0  0  0  0  0  0  0
   -2.5037    0.4914   -2.1091 B   0  0  0  0  0  0  0  0  0  0  0  0
    2.3527   -3.8873    0.4531 N   0  0  0  0  0  0  0  0  0  0  0  0
    3.9123   -0.2024    0.7259 B   0  0  0  0  0  0  0  0  0  0  0  0
    1.9285    1.9570   -2.4651 N   0  0  0  0  0  0  0  0  0  0  0  0
    1.0012    2.2544   -4.6225 B   0  0  0  0  0  0  0  0  0  0  0  0
   -4.1860    0.8290   -0.3475 N   0  0  0  0  0  0  0  0  0  0  0  0
   -1.3389    2.4537   -3.1149 B   0  0  0  0  0  0  0  0  0  0  0  0
   -2.3596    1.9326   -2.3058 N   0  0  0  0  0  0  0  0  0  0  0  0
    3.0731   -2.6455    0.6011 B   0  0  0  0  0  0  0  0  0  0  0  0
    2.3352   -3.6737   -0.9709 N   0  0  0  0  0  0  0  0  0  0  0  0
    2.2179    0.5458    2.8084 B   0  0  0  0  0  0  0  0  0  0  0  0
   -2.0264    0.6119    3.6015 N   0  0  0  0  0  0  0  0  0  0  0  0
   -1.1017   -4.1838   -0.4410 B   0  0  0  0  0  0  0  0  0  0  0  0
   -3.2181    0.0417   -0.9586 N   0  0  0  0  0  0  0  0  0  0  0  0
    3.4478    1.2586   -0.5141 B   0  0  0  0  0  0  0  0  0  0  0  0
    2.5821    1.6330    1.9365 N   0  0  0  0  0  0  0  0  0  0  0  0
    1.4721   -1.5550   -3.5156 B   0  0  0  0  0  0  0  0  0  0  0  0
   -2.1026    1.7542    2.7608 N   0  0  0  0  0  0  0  0  0  0  0  0
    2.0408    0.7119   -3.2115 B   0  0  0  0  0  0  0  0  0  0  0  0
   -2.7209   -1.3417    2.3206 N   0  0  0  0  0  0  0  0  0  0  0  0
    0.6586   -0.5389   -4.4869 B   0  0  0  0  0  0  0  0  0  0  0  0
   -0.1687   -3.7594   -1.3565 N   0  0  0  0  0  0  0  0  0  0  0  0
    0.4856   -2.1056    3.4338 B   0  0  0  0  0  0  0  0  0  0  0  0
   -0.5873   -1.2050    3.8245 N   0  0  0  0  0  0  0  0  0  0  0  0
   -3.2244   -1.4514    1.0003 B   0  0  0  0  0  0  0  0  0  0  0  0
    2.6713   -0.8555    2.6211 N   0  0  0  0  0  0  0  0  0  0  0  0
    1.8786    3.3393   -0.1064 B   0  0  0  0  0  0  0  0  0  0  0  0
    2.8769   -2.3318   -0.7936 N   0  0  0  0  0  0  0  0  0  0  0  0
  1  2  1  0  0  0  0
  2  3  1  0  0  0  0
  3  4  1  0  0  0  0
  4  5  1  0  0  0  0
  5  6  1  0  0  0  0
  6  7  4  0  0  0  0
  7  8  4  0  0  0  0
  8  9  4  0  0  0  0
  9 10  4  0  0  0  0
 10 11  4  0  0  0  0
 11 12  4  0  0  0  0
 12 13  1  0  0  0  0
 13 14  1  0  0  0  0
 14 15  4  0  0  0  0
 15 16  4  0  0  0  0
 16 17  4  0  0  0  0
 17 18  4  0  0  0  0
 18 19  1  0  0  0  0
 19 20  3  0  0  0  0
 14 21  4  0  0  0  0
 18 21  4  0  0  0  0
  8 22  4  0  0  0  0
 12 22  4  0  0  0  0
 22 23  4  0  0  0  0
  6 24  4  0  0  0  0
 23 24  4  0  0  0  0
 24 25  1  0  0  0  0
 25 26  1  0  0  0  0
 26 27  1  0  0  0  0
 27 28  1  0  0  0  0
 28 29  1  0  0  0  0
  1 30  1  0  0  0  0
  1 31  1  0  0  0  0
  1 32  1  0  0  0  0
  3 33  1  0  0  0  0
  3 34  1  0  0  0  0
  4 35  1  0  0  0  0
  4 36  1  0  0  0  0
  7 37  1  0  0  0  0
 10 38  1  0  0  0  0
 13 39  1  0  0  0  0
 15 40  1  0  0  0  0
 16 41  1  0  0  0  0
 17 42  1  0  0  0  0
 20 43  1  0  0  0  0
 21 44  1  0  0  0  0
 23 45  1  0  0  0  0
 26 46  1  0  0  0  0
 26 47  1  0  0  0  0
 27 48  1  0  0  0  0
 27 49  1  0  0  0  0
 29 50  1  0  0  0  0
 29 51  1  0  0  0  0
 29 52  1  0  0  0  0
 60 61  1  0  0  0  0
 63 64  1  0  0  0  0
 59 66  1  0  0  0  0
 62 67  1  0  0  0  0
 66 69  1  0  0  0  0
 68 71  1  0  0  0  0
 70 72  1  0  0  0  0
 60 73  1  0  0  0  0
 63 74  1  0  0  0  0
 59 75  1  0  0  0  0
 72 76  1  0  0  0  0
 74 77  1  0  0  0  0
 58 79  1  0  0  0  0
 66 80  1  0  0  0  0
 75 80  1  0  0  0  0
 79 82  1  0  0  0  0
 56 83  1  0  0  0  0
 78 83  1  0  0  0  0
 80 85  1  0  0  0  0
 67 86  1  0  0  0  0
 73 87  1  0  0  0  0
 86 87  1  0  0  0  0
 68 88  1  0  0  0  0
 75 88  1  0  0  0  0
 71 89  1  0  0  0  0
 57 90  1  0  0  0  0
 64 91  1  0  0  0  0
 68 91  1  0  0  0  0
 59 92  1  0  0  0  0
 77 92  1  0  0  0  0
 91 92  1  0  0  0  0
 57 93  1  0  0  0  0
 90 93  1  0  0  0  0
 69 94  1  0  0  0  0
 76 94  1  0  0  0  0
 82 95  1  0  0  0  0
 84 95  1  0  0  0  0
 87 95  1  0  0  0  0
 79 96  1  0  0  0  0
 90 96  1  0  0  0  0
 73 97  1  0  0  0  0
 93 98  1  0  0  0  0
 53 99  1  0  0  0  0
 54 99  1  0  0  0  0
 78 99  1  0  0  0  0
 55100  1  0  0  0  0
 89100  1  0  0  0  0
 61101  1  0  0  0  0
 65101  1  0  0  0  0
 89101  1  0  0  0  0
 63102  1  0  0  0  0
 74102  1  0  0  0  0
 61103  1  0  0  0  0
 71103  1  0  0  0  0
 64104  1  0  0  0  0
 97104  1  0  0  0  0
103104  1  0  0  0  0
 53105  1  0  0  0  0
 98105  1  0  0  0  0
 62106  1  0  0  0  0
 98106  1  0  0  0  0
 72107  1  0  0  0  0
 81108  1  0  0  0  0
 94108  1  0  0  0  0
 82109  1  0  0  0  0
 96109  1  0  0  0  0
 84110  1  0  0  0  0
 97110  1  0  0  0  0
102110  1  0  0  0  0
 54111  1  0  0  0  0
 55111  1  0  0  0  0
 78111  1  0  0  0  0
 54112  1  0  0  0  0
 85112  1  0  0  0  0
107112  1  0  0  0  0
 56113  1  0  0  0  0
 67113  1  0  0  0  0
 69114  1  0  0  0  0
 77114  1  0  0  0  0
108114  1  0  0  0  0
 56115  1  0  0  0  0
 65115  1  0  0  0  0
100115  1  0  0  0  0
 58116  1  0  0  0  0
 81116  1  0  0  0  0
 60117  1  0  0  0  0
 65117  1  0  0  0  0
113117  1  0  0  0  0
 62118  1  0  0  0  0
 86118  1  0  0  0  0
109118  1  0  0  0  0
 57119  1  0  0  0  0
 70119  1  0  0  0  0
 76120  1  0  0  0  0
 81120  1  0  0  0  0
119120  1  0  0  0  0
 58121  1  0  0  0  0
 84121  1  0  0  0  0
116121  1  0  0  0  0
 53122  1  0  0  0  0
 70122  1  0  0  0  0
107122  1  0  0  0  0
 55123  1  0  0  0  0
 85123  1  0  0  0  0
 88123  1  0  0  0  0
 83124  1  0  0  0  0
105124  1  0  0  0  0
106124  1  0  0  0  0
M  END
