 xtb: 6.7.1pre (5071a88)
          08312618363D

128116  0     0  0            999 V2000
   -3.3879    0.0901    0.8167 C   0  0  0  0  0  0  0  0  0  0  0  0
   -2.0237   -0.1969    0.2109 C   0  0  0  0  0  0  0  0  0  0  0  0
   -1.6921   -1.4255   -0.2274 C   0  0  0  0  0  0  0  0  0  0  0  0
   -0.3791   -1.6359   -0.8973 C   0  0  0  0  0  0  0  0  0  0  0  0
   -0.0387   -2.7936   -1.1511 O   0  0  0  0  0  0  0  0  0  0  0  0
    0.3840   -0.5050   -1.1774 N   0  0  0  0  0  0  0  0  0  0  0  0
    0.0888    0.7485   -0.6387 C   0  0  0  0  0  0  0  0  0  0  0  0
    0.8763    1.6996   -0.7019 O   0  0  0  0  0  0  0  0  0  0  0  0
   -1.1369    0.8718    0.0529 N   0  0  0  0  0  0  0  0  0  0  0  0
   -1.4012    2.1710    0.6111 C   0  0  0  0  0  0  0  0  0  0  0  0
   -1.5683    2.3291    1.9937 C   0  0  0  0  0  0  0  0  0  0  0  0
   -1.7968    3.5987    2.5340 C   0  0  0  0  0  0  0  0  0  0  0  0
   -1.8581    4.7133    1.6945 C   0  0  0  0  0  0  0  0  0  0  0  0
   -2.1981    6.5962    2.5046 I   0  0  0  0  0  0  0  0  0  0  0  0
   -1.6944    4.5721    0.3187 C   0  0  0  0  0  0  0  0  0  0  0  0
   -1.4656    3.3056   -0.2116 C   0  0  0  0  0  0  0  0  0  0  0  0
   -1.3635    3.1790   -1.5437 F   0  0  0  0  0  0  0  0  0  0  0  0
    1.5756   -0.7067   -1.9937 C   0  0  0  0  0  0  0  0  0  0  0  0
    1.4111   -1.4677   -3.1758 C   0  0  0  0  0  0  0  0  0  0  0  0
    2.4833   -1.7820   -4.0096 C   0  0  0  0  0  0  0  0  0  0  0  0
    3.7552   -1.3473   -3.6783 C   0  0  0  0  0  0  0  0  0  0  0  0
    3.9523   -0.5938   -2.5204 C   0  0  0  0  0  0  0  0  0  0  0  0
    2.8851   -0.2525   -1.6708 C   0  0  0  0  0  0  0  0  0  0  0  0
    3.1255    0.5141   -0.5078 N   0  0  0  0  0  0  0  0  0  0  0  0
    4.3227    0.8970    0.0471 C   0  0  0  0  0  0  0  0  0  0  0  0
    5.4517    0.5602   -0.2736 O   0  0  0  0  0  0  0  0  0  0  0  0
    4.1478    1.8558    1.1760 C   0  0  0  0  0  0  0  0  0  0  0  0
    4.7504    1.5426    2.5259 C   0  0  0  0  0  0  0  0  0  0  0  0
    3.2603    1.5271    2.3558 C   0  0  0  0  0  0  0  0  0  0  0  0
   -2.5727   -2.5969   -0.0428 C   0  0  0  0  0  0  0  0  0  0  0  0
   -2.6943   -3.2044    1.2122 C   0  0  0  0  0  0  0  0  0  0  0  0
   -2.0243   -2.7119    2.2657 F   0  0  0  0  0  0  0  0  0  0  0  0
   -3.5178   -4.3107    1.4005 C   0  0  0  0  0  0  0  0  0  0  0  0
   -4.2330   -4.8287    0.3219 C   0  0  0  0  0  0  0  0  0  0  0  0
   -4.1195   -4.2379   -0.9378 C   0  0  0  0  0  0  0  0  0  0  0  0
   -3.2920   -3.1265   -1.1227 C   0  0  0  0  0  0  0  0  0  0  0  0
   -4.1376   -0.6656    0.5634 H   0  0  0  0  0  0  0  0  0  0  0  0
   -3.3267    0.1340    1.9082 H   0  0  0  0  0  0  0  0  0  0  0  0
   -3.8005    1.0324    0.4399 H   0  0  0  0  0  0  0  0  0  0  0  0
   -1.4902    1.4757    2.6632 H   0  0  0  0  0  0  0  0  0  0  0  0
   -1.9154    3.7037    3.6104 H   0  0  0  0  0  0  0  0  0  0  0  0
   -1.7440    5.4220   -0.3546 H   0  0  0  0  0  0  0  0  0  0  0  0
    0.4272   -1.8318   -3.4663 H   0  0  0  0  0  0  0  0  0  0  0  0
    2.3225   -2.3726   -4.9075 H   0  0  0  0  0  0  0  0  0  0  0  0
    4.6021   -1.5903   -4.3150 H   0  0  0  0  0  0  0  0  0  0  0  0
    4.9679   -0.2687   -2.3133 H   0  0  0  0  0  0  0  0  0  0  0  0
    2.3085    0.9623   -0.1090 H   0  0  0  0  0  0  0  0  0  0  0  0
    4.1990    2.8941    0.8631 H   0  0  0  0  0  0  0  0  0  0  0  0
    5.1978    2.3605    3.0783 H   0  0  0  0  0  0  0  0  0  0  0  0
    5.2649    0.5949    2.6449 H   0  0  0  0  0  0  0  0  0  0  0  0
    2.6887    2.3362    2.7954 H   0  0  0  0  0  0  0  0  0  0  0  0
    2.7669    0.5624    2.3905 H   0  0  0  0  0  0  0  0  0  0  0  0
   -3.5930   -4.7633    2.3842 H   0  0  0  0  0  0  0  0  0  0  0  0
   -4.8732   -5.6968    0.4600 H   0  0  0  0  0  0  0  0  0  0  0  0
   -4.6703   -4.6495   -1.7808 H   0  0  0  0  0  0  0  0  0  0  0  0
   -3.2067   -2.6876   -2.1143 H   0  0  0  0  0  0  0  0  0  0  0  0
    2.1012    0.0000    3.3450 B   0  0  0  0  0  0  0  0  0  0  0  0
   -2.1012    0.0000    3.3450 B   0  0  0  0  0  0  0  0  0  0  0  0
    0.0000    2.1012    3.3450 B   0  0  0  0  0  0  0  0  0  0  0  0
    0.0000   -2.1012    3.3450 B   0  0  0  0  0  0  0  0  0  0  0  0
    3.3450    2.1012    0.0000 B   0  0  0  0  0  0  0  0  0  0  0  0
    3.3450   -2.1012    0.0000 B   0  0  0  0  0  0  0  0  0  0  0  0
    3.3450    0.0000    2.1012 B   0  0  0  0  0  0  0  0  0  0  0  0
    3.3450    0.0000   -2.1012 B   0  0  0  0  0  0  0  0  0  0  0  0
   -3.3450    2.1012    0.0000 B   0  0  0  0  0  0  0  0  0  0  0  0
   -3.3450   -2.1012    0.0000 B   0  0  0  0  0  0  0  0  0  0  0  0
   -3.3450    0.0000    2.1012 B   0  0  0  0  0  0  0  0  0  0  0  0
   -3.3450    0.0000   -2.1012 B   0  0  0  0  0  0  0  0  0  0  0  0
    2.1012    0.0000   -3.3450 B   0  0  0  0  0  0  0  0  0  0  0  0
   -2.1012    0.0000   -3.3450 B   0  0  0  0  0  0  0  0  0  0  0  0
    0.0000    2.1012   -3.3450 B   0  0  0  0  0  0  0  0  0  0  0  0
    0.0000   -2.1012   -3.3450 B   0  0  0  0  0  0  0  0  0  0  0  0
    0.0000    3.3450    2.1012 B   0  0  0  0  0  0  0  0  0  0  0  0
    0.0000    3.3450   -2.1012 B   0  0  0  0  0  0  0  0  0  0  0  0
    0.0000   -3.3450    2.1012 B   0  0  0  0  0  0  0  0  0  0  0  0
    0.0000   -3.3450   -2.1012 B   0  0  0  0  0  0  0  0  0  0  0  0
    2.1012    3.3450    0.0000 B   0  0  0  0  0  0  0  0  0  0  0  0
   -2.1012    3.3450    0.0000 B   0  0  0  0  0  0  0  0  0  0  0  0
    2.1012   -3.3450    0.0000 B   0  0  0  0  0  0  0  0  0  0  0  0
   -2.1012   -3.3450    0.0000 B   0  0  0  0  0  0  0  0  0  0  0  0
    1.4800    1.4800    3.5800 B   0  0  0  0  0  0  0  0  0  0  0  0
   -1.4800    1.4800    3.5800 B   0  0  0  0  0  0  0  0  0  0  0  0
    1.4800   -1.4800    3.5800 B   0  0  0  0  0  0  0  0  0  0  0  0
   -1.4800   -1.4800    3.5800 B   0  0  0  0  0  0  0  0  0  0  0  0
    3.5800    1.4800    1.4800 B   0  0  0  0  0  0  0  0  0  0  0  0
    3.5800   -1.4800    1.4800 B   0  0  0  0  0  0  0  0  0  0  0  0
    3.5800    1.4800   -1.4800 B   0  0  0  0  0  0  0  0  0  0  0  0
    3.5800   -1.4800   -1.4800 B   0  0  0  0  0  0  0  0  0  0  0  0
   -3.5800    1.4800    1.4800 B   0  0  0  0  0  0  0  0  0  0  0  0
   -3.5800   -1.4800    1.4800 B   0  0  0  0  0  0  0  0  0  0  0  0
   -3.5800    1.4800   -1.4800 B   0  0  0  0  0  0  0  0  0  0  0  0
   -3.5800   -1.4800   -1.4800 B   0  0  0  0  0  0  0  0  0  0  0  0
    2.1012    0.0000    3.9200 N   0  0  0  0  0  0  0  0  0  0  0  0
   -2.1012    0.0000    3.9200 N   0  0  0  0  0  0  0  0  0  0  0  0
    0.0000    2.1012    3.9200 N   0  0  0  0  0  0  0  0  0  0  0  0
    0.0000   -2.1012    3.9200 N   0  0  0  0  0  0  0  0  0  0  0  0
    3.9200    2.1012    0.0000 N   0  0  0  0  0  0  0  0  0  0  0  0
    3.9200   -2.1012    0.0000 N   0  0  0  0  0  0  0  0  0  0  0  0
    3.9200    0.0000    2.1012 N   0  0  0  0  0  0  0  0  0  0  0  0
    3.9200    0.0000   -2.1012 N   0  0  0  0  0  0  0  0  0  0  0  0
   -3.9200    2.1012    0.0000 N   0  0  0  0  0  0  0  0  0  0  0  0
   -3.9200   -2.1012    0.0000 N   0  0  0  0  0  0  0  0  0  0  0  0
   -3.9200    0.0000    2.1012 N   0  0  0  0  0  0  0  0  0  0  0  0
   -3.9200    0.0000   -2.1012 N   0  0  0  0  0  0  0  0  0  0  0  0
    2.1012    0.0000   -3.9200 N   0  0  0  0  0  0  0  0  0  0  0  0
   -2.1012    0.0000   -3.9200 N   0  0  0  0  0  0  0  0  0  0  0  0
    0.0000    2.1012   -3.9200 N   0  0  0  0  0  0  0  0  0  0  0  0
    0.0000   -2.1012   -3.9200 N   0  0  0  0  0  0  0  0  0  0  0  0
    0.0000    3.9200    2.1012 N   0  0  0  0  0  0  0  0  0  0  0  0
    0.0000    3.9200   -2.1012 N   0  0  0  0  0  0  0  0  0  0  0  0
    0.0000   -3.9200    2.1012 N   0  0  0  0  0  0  0  0  0  0  0  0
    0.0000   -3.9200   -2.1012 N   0  0  0  0  0  0  0  0  0  0  0  0
    2.1012    3.9200    0.0000 N   0  0  0  0  0  0  0  0  0  0  0  0
   -2.1012    3.9200    0.0000 N   0  0  0  0  0  0  0  0  0  0  0  0
    2.1012   -3.9200    0.0000 N   0  0  0  0  0  0  0  0  0  0  0  0
   -2.1012   -3.9200    0.0000 N   0  0  0  0  0  0  0  0  0  0  0  0
    1.4800    1.4800    4.2200 N   0  0  0  0  0  0  0  0  0  0  0  0
   -1.4800    1.4800    4.2200 N   0  0  0  0  0  0  0  0  0  0  0  0
    1.4800   -1.4800    4.2200 N   0  0  0  0  0  0  0  0  0  0  0  0
   -1.4800   -1.4800    4.2200 N   0  0  0  0  0  0  0  0  0  0  0  0
    4.2200    1.4800    1.4800 N   0  0  0  0  0  0  0  0  0  0  0  0
    4.2200   -1.4800    1.4800 N   0  0  0  0  0  0  0  0  0  0  0  0
    4.2200    1.4800   -1.4800 N   0  0  0  0  0  0  0  0  0  0  0  0
    4.2200   -1.4800   -1.4800 N   0  0  0  0  0  0  0  0  0  0  0  0
   -4.2200    1.4800    1.4800 N   0  0  0  0  0  0  0  0  0  0  0  0
   -4.2200   -1.4800    1.4800 N   0  0  0  0  0  0  0  0  0  0  0  0
   -4.2200    1.4800   -1.4800 N   0  0  0  0  0  0  0  0  0  0  0  0
   -4.2200   -1.4800   -1.4800 N   0  0  0  0  0  0  0  0  0  0  0  0
  1  2  1  0  0  0  0
  2  3  1  0  0  0  0
  3  4  1  0  0  0  0
  4  5  1  0  0  0  0
  4  6  1  0  0  0  0
  6  7  1  0  0  0  0
  7  8  4  0  0  0  0
  2  9  1  0  0  0  0
  7  9  1  0  0  0  0
  9 10  1  0  0  0  0
 10 11  1  0  0  0  0
 11 12  1  0  0  0  0
 12 13  4  0  0  0  0
 13 14  1  0  0  0  0
 13 15  1  0  0  0  0
 10 16  1  0  0  0  0
 15 16  1  0  0  0  0
 16 17  1  0  0  0  0
  6 18  1  0  0  0  0
 18 19  1  0  0  0  0
 19 20  4  0  0  0  0
 20 21  4  0  0  0  0
 21 22  1  0  0  0  0
 18 23  1  0  0  0  0
 23 24  1  0  0  0  0
 24 25  1  0  0  0  0
 25 26  4  0  0  0  0
 28 29  1  0  0  0  0
  3 30  1  0  0  0  0
 30 31  1  0  0  0  0
 31 32  1  0  0  0  0
 31 33  1  0  0  0  0
 33 34  4  0  0  0  0
 34 35  4  0  0  0  0
 30 36  1  0  0  0  0
 35 36  4  0  0  0  0
  1 37  1  0  0  0  0
  1 39  1  0  0  0  0
 11 40  1  0  0  0  0
 12 41  1  0  0  0  0
 15 42  1  0  0  0  0
 20 44  1  0  0  0  0
 21 45  1  0  0  0  0
 22 46  1  0  0  0  0
 24 47  1  0  0  0  0
 27 48  1  0  0  0  0
 28 49  1  0  0  0  0
 28 50  1  0  0  0  0
 29 51  1  0  0  0  0
 29 52  1  0  0  0  0
 33 53  1  0  0  0  0
 34 54  1  0  0  0  0
 35 55  1  0  0  0  0
 36 56  1  0  0  0  0
 22 64  1  0  0  0  0
 23 64  1  0  0  0  0
 30 66  1  0  0  0  0
  1 67  1  0  0  0  0
 19 72  1  0  0  0  0
  5 76  1  0  0  0  0
 10 78  1  0  0  0  0
 16 78  1  0  0  0  0
 30 80  1  0  0  0  0
 27 85  1  0  0  0  0
 29 85  1  0  0  0  0
 24 87  1  0  0  0  0
 23 88  1  0  0  0  0
 57 93  3  0  0  0  0
 58 94  3  0  0  0  0
 59 95  3  0  0  0  0
 60 96  3  0  0  0  0
 25 97  1  0  0  0  0
 27 97  1  0  0  0  0
 61 97  2  0  0  0  0
 62 98  3  0  0  0  0
 63 99  3  0  0  0  0
 22100  4  0  0  0  0
 23100  1  0  0  0  0
 64100  2  0  0  0  0
 65101  3  0  0  0  0
 30102  1  0  0  0  0
 66102  3  0  0  0  0
  1103  1  0  0  0  0
 67103  3  0  0  0  0
 68104  3  0  0  0  0
 69105  3  0  0  0  0
 70106  3  0  0  0  0
 71107  3  0  0  0  0
 43108  1  0  0  0  0
 72108  3  0  0  0  0
 73109  3  0  0  0  0
 74110  3  0  0  0  0
 75111  3  0  0  0  0
 76112  3  0  0  0  0
 77113  3  0  0  0  0
 15114  1  0  0  0  0
 16114  1  0  0  0  0
 78114  2  0  0  0  0
 79115  3  0  0  0  0
 30116  1  0  0  0  0
 80116  3  0  0  0  0
 81117  3  0  0  0  0
 82118  3  0  0  0  0
 83119  3  0  0  0  0
 84120  3  0  0  0  0
 27121  2  0  0  0  0
 28121  1  0  0  0  0
 85121  1  0  0  0  0
 86122  3  0  0  0  0
 87123  3  0  0  0  0
 22124  1  0  0  0  0
 88124  3  0  0  0  0
 89125  3  0  0  0  0
 90126  3  0  0  0  0
 91127  3  0  0  0  0
 92128  3  0  0  0  0
M  END
