 xtb: 6.7.1pre (5071a88)
          08312621133D

128168  0     0  0            999 V2000
   -3.3879    0.0901   14.1637 C   0  0  0  0  0  0  0  0  0  0  0  0
   -2.0237   -0.1969   13.5579 C   0  0  0  0  0  0  0  0  0  0  0  0
   -1.6921   -1.4255   13.1195 C   0  0  0  0  0  0  0  0  0  0  0  0
   -0.3791   -1.6359   12.4496 C   0  0  0  0  0  0  0  0  0  0  0  0
   -0.0387   -2.7936   12.1958 O   0  0  0  0  0  0  0  0  0  0  0  0
    0.3840   -0.5050   12.1696 N   0  0  0  0  0  0  0  0  0  0  0  0
    0.0888    0.7485   12.7082 C   0  0  0  0  0  0  0  0  0  0  0  0
    0.8763    1.6996   12.6451 O   0  0  0  0  0  0  0  0  0  0  0  0
   -1.1369    0.8718   13.3998 N   0  0  0  0  0  0  0  0  0  0  0  0
   -1.4012    2.1710   13.9581 C   0  0  0  0  0  0  0  0  0  0  0  0
   -1.5683    2.3291   15.3406 C   0  0  0  0  0  0  0  0  0  0  0  0
   -1.7968    3.5987   15.8810 C   0  0  0  0  0  0  0  0  0  0  0  0
   -1.8581    4.7133   15.0414 C   0  0  0  0  0  0  0  0  0  0  0  0
   -2.1981    6.5962   15.8516 I   0  0  0  0  0  0  0  0  0  0  0  0
   -1.6944    4.5721   13.6656 C   0  0  0  0  0  0  0  0  0  0  0  0
   -1.4656    3.3056   13.1353 C   0  0  0  0  0  0  0  0  0  0  0  0
   -1.3635    3.1790   11.8032 F   0  0  0  0  0  0  0  0  0  0  0  0
    1.5756   -0.7067   11.3533 C   0  0  0  0  0  0  0  0  0  0  0  0
    1.4111   -1.4677   10.1711 C   0  0  0  0  0  0  0  0  0  0  0  0
    2.4833   -1.7820    9.3374 C   0  0  0  0  0  0  0  0  0  0  0  0
    3.7552   -1.3473    9.6687 C   0  0  0  0  0  0  0  0  0  0  0  0
    3.9523   -0.5938   10.8265 C   0  0  0  0  0  0  0  0  0  0  0  0
    2.8851   -0.2525   11.6761 C   0  0  0  0  0  0  0  0  0  0  0  0
    3.1255    0.5141   12.8391 N   0  0  0  0  0  0  0  0  0  0  0  0
    4.3227    0.8970   13.3940 C   0  0  0  0  0  0  0  0  0  0  0  0
    5.4517    0.5602   13.0733 O   0  0  0  0  0  0  0  0  0  0  0  0
    4.1478    1.8558   14.5229 C   0  0  0  0  0  0  0  0  0  0  0  0
    4.7504    1.5426   15.8728 C   0  0  0  0  0  0  0  0  0  0  0  0
    3.2603    1.5271   15.7027 C   0  0  0  0  0  0  0  0  0  0  0  0
   -2.5727   -2.5969   13.3041 C   0  0  0  0  0  0  0  0  0  0  0  0
   -2.6943   -3.2044   14.5592 C   0  0  0  0  0  0  0  0  0  0  0  0
   -2.0243   -2.7119   15.6127 F   0  0  0  0  0  0  0  0  0  0  0  0
   -3.5178   -4.3107   14.7474 C   0  0  0  0  0  0  0  0  0  0  0  0
   -4.2330   -4.8287   13.6688 C   0  0  0  0  0  0  0  0  0  0  0  0
   -4.1195   -4.2379   12.4091 C   0  0  0  0  0  0  0  0  0  0  0  0
   -3.2920   -3.1265   12.2243 C   0  0  0  0  0  0  0  0  0  0  0  0
   -4.1376   -0.6656   13.9103 H   0  0  0  0  0  0  0  0  0  0  0  0
   -3.3267    0.1340   15.2552 H   0  0  0  0  0  0  0  0  0  0  0  0
   -3.8005    1.0324   13.7868 H   0  0  0  0  0  0  0  0  0  0  0  0
   -1.4902    1.4757   16.0101 H   0  0  0  0  0  0  0  0  0  0  0  0
   -1.9154    3.7037   16.9574 H   0  0  0  0  0  0  0  0  0  0  0  0
   -1.7440    5.4220   12.9924 H   0  0  0  0  0  0  0  0  0  0  0  0
    0.4272   -1.8318    9.8806 H   0  0  0  0  0  0  0  0  0  0  0  0
    2.3225   -2.3726    8.4395 H   0  0  0  0  0  0  0  0  0  0  0  0
    4.6021   -1.5903    9.0319 H   0  0  0  0  0  0  0  0  0  0  0  0
    4.9679   -0.2687   11.0337 H   0  0  0  0  0  0  0  0  0  0  0  0
    2.3085    0.9623   13.2379 H   0  0  0  0  0  0  0  0  0  0  0  0
    4.1990    2.8941   14.2100 H   0  0  0  0  0  0  0  0  0  0  0  0
    5.1978    2.3605   16.4252 H   0  0  0  0  0  0  0  0  0  0  0  0
    5.2649    0.5949   15.9918 H   0  0  0  0  0  0  0  0  0  0  0  0
    2.6887    2.3362   16.1423 H   0  0  0  0  0  0  0  0  0  0  0  0
    2.7669    0.5624   15.7374 H   0  0  0  0  0  0  0  0  0  0  0  0
   -3.5930   -4.7633   15.7311 H   0  0  0  0  0  0  0  0  0  0  0  0
   -4.8732   -5.6968   13.8069 H   0  0  0  0  0  0  0  0  0  0  0  0
   -4.6703   -4.6495   11.5661 H   0  0  0  0  0  0  0  0  0  0  0  0
   -3.2067   -2.6876   11.2327 H   0  0  0  0  0  0  0  0  0  0  0  0
    3.4592   -1.4546    1.6280 B   0  0  0  0  0  0  0  0  0  0  0  0
    3.4564    1.1299    0.9400 N   0  0  0  0  0  0  0  0  0  0  0  0
    2.5399    2.3625   -1.2610 B   0  0  0  0  0  0  0  0  0  0  0  0
    2.2931   -0.6416   -2.7306 N   0  0  0  0  0  0  0  0  0  0  0  0
    0.6905   -3.5611    2.7027 B   0  0  0  0  0  0  0  0  0  0  0  0
   -2.9397   -2.6548    1.7095 N   0  0  0  0  0  0  0  0  0  0  0  0
   -1.0382    4.0851    1.8312 B   0  0  0  0  0  0  0  0  0  0  0  0
   -0.6193    0.0177   -3.9419 N   0  0  0  0  0  0  0  0  0  0  0  0
   -0.4737    1.4453   -4.0917 B   0  0  0  0  0  0  0  0  0  0  0  0
    1.2096   -3.7868   -1.7394 N   0  0  0  0  0  0  0  0  0  0  0  0
   -3.8445    2.2094   -0.4937 B   0  0  0  0  0  0  0  0  0  0  0  0
   -2.7729    2.7636   -1.2118 N   0  0  0  0  0  0  0  0  0  0  0  0
    1.4057    0.8181   -4.8893 B   0  0  0  0  0  0  0  0  0  0  0  0
   -0.2358    3.3642    2.8335 N   0  0  0  0  0  0  0  0  0  0  0  0
    0.8983   -2.8798   -2.8138 B   0  0  0  0  0  0  0  0  0  0  0  0
   -0.4918    3.7666   -1.0101 N   0  0  0  0  0  0  0  0  0  0  0  0
   -0.8060    2.1823    3.2819 B   0  0  0  0  0  0  0  0  0  0  0  0
    1.6561   -1.2744    3.5036 N   0  0  0  0  0  0  0  0  0  0  0  0
   -0.2485    3.4699   -2.3799 B   0  0  0  0  0  0  0  0  0  0  0  0
    1.3087    0.0689    3.8170 N   0  0  0  0  0  0  0  0  0  0  0  0
   -1.5974   -0.5599   -3.0847 B   0  0  0  0  0  0  0  0  0  0  0  0
   -3.8325    1.7768    0.8316 N   0  0  0  0  0  0  0  0  0  0  0  0
    0.3376    4.4960    1.1839 B   0  0  0  0  0  0  0  0  0  0  0  0
    0.0433   -0.0140    4.4567 N   0  0  0  0  0  0  0  0  0  0  0  0
   -2.7088    2.2268    1.6012 B   0  0  0  0  0  0  0  0  0  0  0  0
    3.7727   -0.1326   -0.7655 N   0  0  0  0  0  0  0  0  0  0  0  0
   -2.2534   -3.6394    1.0085 B   0  0  0  0  0  0  0  0  0  0  0  0
    1.0558    3.7334    2.2357 N   0  0  0  0  0  0  0  0  0  0  0  0
   -1.8256   -0.7775    3.2198 B   0  0  0  0  0  0  0  0  0  0  0  0
   -2.4368   -3.6019   -0.4508 N   0  0  0  0  0  0  0  0  0  0  0  0
    3.0187   -1.0737   -1.5028 B   0  0  0  0  0  0  0  0  0  0  0  0
   -3.1580   -1.2526   -0.3843 N   0  0  0  0  0  0  0  0  0  0  0  0
    2.0347    2.9223    1.5617 B   0  0  0  0  0  0  0  0  0  0  0  0
   -0.5074   -2.9001   -2.4328 N   0  0  0  0  0  0  0  0  0  0  0  0
   -1.6735   -2.1129   -2.4916 B   0  0  0  0  0  0  0  0  0  0  0  0
    0.5901    3.9646   -0.1102 N   0  0  0  0  0  0  0  0  0  0  0  0
    1.0903    2.9596   -3.1825 B   0  0  0  0  0  0  0  0  0  0  0  0
    0.0774   -4.3592    1.7213 N   0  0  0  0  0  0  0  0  0  0  0  0
   -1.7840    3.4524   -0.4082 B   0  0  0  0  0  0  0  0  0  0  0  0
   -2.0135    3.4185    1.0316 N   0  0  0  0  0  0  0  0  0  0  0  0
    1.4659   -4.2121    1.4991 B   0  0  0  0  0  0  0  0  0  0  0  0
   -0.7980    1.0642    4.1946 N   0  0  0  0  0  0  0  0  0  0  0  0
   -2.6662   -2.4021   -1.1753 B   0  0  0  0  0  0  0  0  0  0  0  0
   -1.0744   -4.4843    0.9912 N   0  0  0  0  0  0  0  0  0  0  0  0
   -2.5037    0.4914   -2.1091 B   0  0  0  0  0  0  0  0  0  0  0  0
    2.3527   -3.8873    0.4531 N   0  0  0  0  0  0  0  0  0  0  0  0
    3.9123   -0.2024    0.7259 B   0  0  0  0  0  0  0  0  0  0  0  0
    1.9285    1.9570   -2.4651 N   0  0  0  0  0  0  0  0  0  0  0  0
    1.0012    2.2544   -4.6225 B   0  0  0  0  0  0  0  0  0  0  0  0
   -4.1860    0.8290   -0.3475 N   0  0  0  0  0  0  0  0  0  0  0  0
   -1.3389    2.4537   -3.1149 B   0  0  0  0  0  0  0  0  0  0  0  0
   -2.3596    1.9326   -2.3058 N   0  0  0  0  0  0  0  0  0  0  0  0
    3.0731   -2.6455    0.6011 B   0  0  0  0  0  0  0  0  0  0  0  0
    2.3352   -3.6737   -0.9709 N   0  0  0  0  0  0  0  0  0  0  0  0
    2.2179    0.5458    2.8084 B   0  0  0  0  0  0  0  0  0  0  0  0
   -2.0264    0.6119    3.6015 N   0  0  0  0  0  0  0  0  0  0  0  0
   -1.1017   -4.1838   -0.4410 B   0  0  0  0  0  0  0  0  0  0  0  0
   -3.2181    0.0417   -0.9586 N   0  0  0  0  0  0  0  0  0  0  0  0
    3.4478    1.2586   -0.5141 B   0  0  0  0  0  0  0  0  0  0  0  0
    2.5821    1.6330    1.9365 N   0  0  0  0  0  0  0  0  0  0  0  0
    1.4721   -1.5550   -3.5156 B   0  0  0  0  0  0  0  0  0  0  0  0
   -2.1026    1.7542    2.7608 N   0  0  0  0  0  0  0  0  0  0  0  0
    2.0408    0.7119   -3.2115 B   0  0  0  0  0  0  0  0  0  0  0  0
   -2.7209   -1.3417    2.3206 N   0  0  0  0  0  0  0  0  0  0  0  0
    0.6586   -0.5389   -4.4869 B   0  0  0  0  0  0  0  0  0  0  0  0
   -0.1687   -3.7594   -1.3565 N   0  0  0  0  0  0  0  0  0  0  0  0
    0.4856   -2.1056    3.4338 B   0  0  0  0  0  0  0  0  0  0  0  0
   -0.5873   -1.2050    3.8245 N   0  0  0  0  0  0  0  0  0  0  0  0
   -3.2244   -1.4514    1.0003 B   0  0  0  0  0  0  0  0  0  0  0  0
    2.6713   -0.8555    2.6211 N   0  0  0  0  0  0  0  0  0  0  0  0
    1.8786    3.3393   -0.1064 B   0  0  0  0  0  0  0  0  0  0  0  0
    2.8769   -2.3318   -0.7936 N   0  0  0  0  0  0  0  0  0  0  0  0
  1  2  1  0  0  0  0
  2  3  2  0  0  0  0
  3  4  1  0  0  0  0
  4  5  2  0  0  0  0
  4  6  1  0  0  0  0
  6  7  1  0  0  0  0
  7  8  2  0  0  0  0
  2  9  1  0  0  0  0
  7  9  1  0  0  0  0
  9 10  1  0  0  0  0
 10 11  4  0  0  0  0
 11 12  4  0  0  0  0
 12 13  4  0  0  0  0
 13 14  1  0  0  0  0
 13 15  4  0  0  0  0
 10 16  4  0  0  0  0
 15 16  4  0  0  0  0
 16 17  1  0  0  0  0
  6 18  1  0  0  0  0
 18 19  4  0  0  0  0
 19 20  4  0  0  0  0
 20 21  4  0  0  0  0
 21 22  4  0  0  0  0
 18 23  4  0  0  0  0
 22 23  4  0  0  0  0
 23 24  1  0  0  0  0
 24 25  1  0  0  0  0
 25 26  2  0  0  0  0
 25 27  1  0  0  0  0
 27 28  1  0  0  0  0
 27 29  1  0  0  0  0
 28 29  1  0  0  0  0
  3 30  1  0  0  0  0
 30 31  4  0  0  0  0
 31 32  1  0  0  0  0
 31 33  4  0  0  0  0
 33 34  4  0  0  0  0
 34 35  4  0  0  0  0
 30 36  4  0  0  0  0
 35 36  4  0  0  0  0
  1 37  1  0  0  0  0
  1 38  1  0  0  0  0
  1 39  1  0  0  0  0
 11 40  1  0  0  0  0
 12 41  1  0  0  0  0
 15 42  1  0  0  0  0
 19 43  1  0  0  0  0
 20 44  1  0  0  0  0
 21 45  1  0  0  0  0
 22 46  1  0  0  0  0
 24 47  1  0  0  0  0
 27 48  1  0  0  0  0
 28 49  1  0  0  0  0
 28 50  1  0  0  0  0
 29 51  1  0  0  0  0
 29 52  1  0  0  0  0
 33 53  1  0  0  0  0
 34 54  1  0  0  0  0
 35 55  1  0  0  0  0
 36 56  1  0  0  0  0
 64 65  1  0  0  0  0
 67 68  1  0  0  0  0
 63 70  1  0  0  0  0
 66 71  1  0  0  0  0
 70 73  1  0  0  0  0
 72 75  1  0  0  0  0
 74 76  1  0  0  0  0
 64 77  1  0  0  0  0
 67 78  1  0  0  0  0
 63 79  1  0  0  0  0
 76 80  1  0  0  0  0
 78 81  1  0  0  0  0
 62 83  1  0  0  0  0
 70 84  1  0  0  0  0
 79 84  1  0  0  0  0
 83 86  1  0  0  0  0
 60 87  1  0  0  0  0
 82 87  1  0  0  0  0
 84 89  1  0  0  0  0
 71 90  1  0  0  0  0
 77 91  1  0  0  0  0
 90 91  1  0  0  0  0
 72 92  1  0  0  0  0
 79 92  1  0  0  0  0
 75 93  1  0  0  0  0
 61 94  1  0  0  0  0
 68 95  1  0  0  0  0
 72 95  1  0  0  0  0
 63 96  1  0  0  0  0
 81 96  1  0  0  0  0
 95 96  1  0  0  0  0
 61 97  1  0  0  0  0
 94 97  1  0  0  0  0
 73 98  1  0  0  0  0
 80 98  1  0  0  0  0
 86 99  1  0  0  0  0
 88 99  1  0  0  0  0
 91 99  1  0  0  0  0
 83100  1  0  0  0  0
 94100  1  0  0  0  0
 77101  1  0  0  0  0
 97102  1  0  0  0  0
 57103  1  0  0  0  0
 58103  1  0  0  0  0
 82103  1  0  0  0  0
 59104  1  0  0  0  0
 93104  1  0  0  0  0
 65105  1  0  0  0  0
 69105  1  0  0  0  0
 93105  1  0  0  0  0
 67106  1  0  0  0  0
 78106  1  0  0  0  0
 65107  1  0  0  0  0
 75107  1  0  0  0  0
 68108  1  0  0  0  0
101108  1  0  0  0  0
107108  1  0  0  0  0
 57109  1  0  0  0  0
102109  1  0  0  0  0
 66110  1  0  0  0  0
102110  1  0  0  0  0
 76111  1  0  0  0  0
 85112  1  0  0  0  0
 98112  1  0  0  0  0
 86113  1  0  0  0  0
100113  1  0  0  0  0
 88114  1  0  0  0  0
101114  1  0  0  0  0
106114  1  0  0  0  0
 58115  1  0  0  0  0
 59115  1  0  0  0  0
 82115  1  0  0  0  0
 58116  1  0  0  0  0
 89116  1  0  0  0  0
111116  1  0  0  0  0
 60117  1  0  0  0  0
 71117  1  0  0  0  0
 73118  1  0  0  0  0
 81118  1  0  0  0  0
112118  1  0  0  0  0
 60119  1  0  0  0  0
 69119  1  0  0  0  0
104119  1  0  0  0  0
 62120  1  0  0  0  0
 85120  1  0  0  0  0
 64121  1  0  0  0  0
 69121  1  0  0  0  0
117121  1  0  0  0  0
 66122  1  0  0  0  0
 90122  1  0  0  0  0
113122  1  0  0  0  0
 61123  1  0  0  0  0
 74123  1  0  0  0  0
 80124  1  0  0  0  0
 85124  1  0  0  0  0
123124  1  0  0  0  0
 62125  1  0  0  0  0
 88125  1  0  0  0  0
120125  1  0  0  0  0
 57126  1  0  0  0  0
 74126  1  0  0  0  0
111126  1  0  0  0  0
 59127  1  0  0  0  0
 89127  1  0  0  0  0
 92127  1  0  0  0  0
 87128  1  0  0  0  0
109128  1  0  0  0  0
110128  1  0  0  0  0
M  END
