 xtb: 6.7.1pre (5071a88)
          08312622213D

103146  0     0  0            999 V2000
   -1.8467    0.6795    8.3722 N   0  0  0  0  0  0  0  0  0  0  0  0
   -1.1467    0.4692    9.6215 C   0  0  0  0  0  0  0  0  0  0  0  0
   -0.0496    1.4878    9.7108 C   0  0  0  0  0  0  0  0  0  0  0  0
    1.0595    1.1262    8.7548 C   0  0  0  0  0  0  0  0  0  0  0  0
    1.6139   -0.2473    9.0321 C   0  0  0  0  0  0  0  0  0  0  0  0
    0.5038   -1.2353    8.8060 C   0  0  0  0  0  0  0  0  0  0  0  0
   -0.6692   -0.9521    9.7127 C   0  0  0  0  0  0  0  0  0  0  0  0
   -0.4020   -1.3001   11.0866 N   0  0  0  0  0  0  0  0  0  0  0  0
   -2.2917   -0.9389    9.2571 O   0  0  0  0  0  0  0  0  0  0  0  0
   -1.2486   -0.2830    9.4502 C   0  0  0  0  0  0  0  0  0  0  0  0
   -1.2477    1.0705    9.8887 O   0  0  0  0  0  0  0  0  0  0  0  0
   -0.4169    2.0541    8.2475 Pt  0  0  0  0  0  0  0  0  0  0  0  0
    1.2590    1.3403    9.9870 O   0  0  0  0  0  0  0  0  0  0  0  0
    1.2159    0.0593    9.5415 C   0  0  0  0  0  0  0  0  0  0  0  0
    2.3786   -0.4822    9.3323 O   0  0  0  0  0  0  0  0  0  0  0  0
    0.1039   -0.8085    9.2588 C   0  0  0  0  0  0  0  0  0  0  0  0
    0.2475   -2.0116    8.8505 O   0  0  0  0  0  0  0  0  0  0  0  0
   -1.5975   -0.0408    7.6567 H   0  0  0  0  0  0  0  0  0  0  0  0
   -1.7003    1.6498    8.0238 H   0  0  0  0  0  0  0  0  0  0  0  0
   -1.8567    0.6495   10.4402 H   0  0  0  0  0  0  0  0  0  0  0  0
    0.3209    1.6682   10.7269 H   0  0  0  0  0  0  0  0  0  0  0  0
   -0.4789    2.4558    9.3573 H   0  0  0  0  0  0  0  0  0  0  0  0
    1.8882    1.8463    8.7767 H   0  0  0  0  0  0  0  0  0  0  0  0
    0.6676    1.1146    7.7228 H   0  0  0  0  0  0  0  0  0  0  0  0
    2.4236   -0.4404    8.3122 H   0  0  0  0  0  0  0  0  0  0  0  0
    1.9420   -0.2904   10.0843 H   0  0  0  0  0  0  0  0  0  0  0  0
    0.8805   -2.2430    9.0313 H   0  0  0  0  0  0  0  0  0  0  0  0
    0.1256   -1.1810    7.7717 H   0  0  0  0  0  0  0  0  0  0  0  0
   -1.5046   -1.6008    9.3468 H   0  0  0  0  0  0  0  0  0  0  0  0
   -0.8001   -2.2380   11.3287 H   0  0  0  0  0  0  0  0  0  0  0  0
    0.6265   -1.3776   11.2014 H   0  0  0  0  0  0  0  0  0  0  0  0
    3.4592   -1.4546    1.6280 B   0  0  0  0  0  0  0  0  0  0  0  0
    3.4564    1.1299    0.9400 N   0  0  0  0  0  0  0  0  0  0  0  0
    2.5399    2.3625   -1.2610 B   0  0  0  0  0  0  0  0  0  0  0  0
    2.2931   -0.6416   -2.7306 N   0  0  0  0  0  0  0  0  0  0  0  0
    0.6905   -3.5611    2.7027 B   0  0  0  0  0  0  0  0  0  0  0  0
   -2.9397   -2.6548    1.7095 N   0  0  0  0  0  0  0  0  0  0  0  0
   -1.0382    4.0851    1.8312 B   0  0  0  0  0  0  0  0  0  0  0  0
   -0.6193    0.0177   -3.9419 N   0  0  0  0  0  0  0  0  0  0  0  0
   -0.4737    1.4453   -4.0917 B   0  0  0  0  0  0  0  0  0  0  0  0
    1.2096   -3.7868   -1.7394 N   0  0  0  0  0  0  0  0  0  0  0  0
   -3.8445    2.2094   -0.4937 B   0  0  0  0  0  0  0  0  0  0  0  0
   -2.7729    2.7636   -1.2118 N   0  0  0  0  0  0  0  0  0  0  0  0
    1.4057    0.8181   -4.8893 B   0  0  0  0  0  0  0  0  0  0  0  0
   -0.2358    3.3642    2.8335 N   0  0  0  0  0  0  0  0  0  0  0  0
    0.8983   -2.8798   -2.8138 B   0  0  0  0  0  0  0  0  0  0  0  0
   -0.4918    3.7666   -1.0101 N   0  0  0  0  0  0  0  0  0  0  0  0
   -0.8060    2.1823    3.2819 B   0  0  0  0  0  0  0  0  0  0  0  0
    1.6561   -1.2744    3.5036 N   0  0  0  0  0  0  0  0  0  0  0  0
   -0.2485    3.4699   -2.3799 B   0  0  0  0  0  0  0  0  0  0  0  0
    1.3087    0.0689    3.8170 N   0  0  0  0  0  0  0  0  0  0  0  0
   -1.5974   -0.5599   -3.0847 B   0  0  0  0  0  0  0  0  0  0  0  0
   -3.8325    1.7768    0.8316 N   0  0  0  0  0  0  0  0  0  0  0  0
    0.3376    4.4960    1.1839 B   0  0  0  0  0  0  0  0  0  0  0  0
    0.0433   -0.0140    4.4567 N   0  0  0  0  0  0  0  0  0  0  0  0
   -2.7088    2.2268    1.6012 B   0  0  0  0  0  0  0  0  0  0  0  0
    3.7727   -0.1326   -0.7655 N   0  0  0  0  0  0  0  0  0  0  0  0
   -2.2534   -3.6394    1.0085 B   0  0  0  0  0  0  0  0  0  0  0  0
    1.0558    3.7334    2.2357 N   0  0  0  0  0  0  0  0  0  0  0  0
   -1.8256   -0.7775    3.2198 B   0  0  0  0  0  0  0  0  0  0  0  0
   -2.4368   -3.6019   -0.4508 N   0  0  0  0  0  0  0  0  0  0  0  0
    3.0187   -1.0737   -1.5028 B   0  0  0  0  0  0  0  0  0  0  0  0
   -3.1580   -1.2526   -0.3843 N   0  0  0  0  0  0  0  0  0  0  0  0
    2.0347    2.9223    1.5617 B   0  0  0  0  0  0  0  0  0  0  0  0
   -0.5074   -2.9001   -2.4328 N   0  0  0  0  0  0  0  0  0  0  0  0
   -1.6735   -2.1129   -2.4916 B   0  0  0  0  0  0  0  0  0  0  0  0
    0.5901    3.9646   -0.1102 N   0  0  0  0  0  0  0  0  0  0  0  0
    1.0903    2.9596   -3.1825 B   0  0  0  0  0  0  0  0  0  0  0  0
    0.0774   -4.3592    1.7213 N   0  0  0  0  0  0  0  0  0  0  0  0
   -1.7840    3.4524   -0.4082 B   0  0  0  0  0  0  0  0  0  0  0  0
   -2.0135    3.4185    1.0316 N   0  0  0  0  0  0  0  0  0  0  0  0
    1.4659   -4.2121    1.4991 B   0  0  0  0  0  0  0  0  0  0  0  0
   -0.7980    1.0642    4.1946 N   0  0  0  0  0  0  0  0  0  0  0  0
   -2.6662   -2.4021   -1.1753 B   0  0  0  0  0  0  0  0  0  0  0  0
   -1.0744   -4.4843    0.9912 N   0  0  0  0  0  0  0  0  0  0  0  0
   -2.5037    0.4914   -2.1091 B   0  0  0  0  0  0  0  0  0  0  0  0
    2.3527   -3.8873    0.4531 N   0  0  0  0  0  0  0  0  0  0  0  0
    3.9123   -0.2024    0.7259 B   0  0  0  0  0  0  0  0  0  0  0  0
    1.9285    1.9570   -2.4651 N   0  0  0  0  0  0  0  0  0  0  0  0
    1.0012    2.2544   -4.6225 B   0  0  0  0  0  0  0  0  0  0  0  0
   -4.1860    0.8290   -0.3475 N   0  0  0  0  0  0  0  0  0  0  0  0
   -1.3389    2.4537   -3.1149 B   0  0  0  0  0  0  0  0  0  0  0  0
   -2.3596    1.9326   -2.3058 N   0  0  0  0  0  0  0  0  0  0  0  0
    3.0731   -2.6455    0.6011 B   0  0  0  0  0  0  0  0  0  0  0  0
    2.3352   -3.6737   -0.9709 N   0  0  0  0  0  0  0  0  0  0  0  0
    2.2179    0.5458    2.8084 B   0  0  0  0  0  0  0  0  0  0  0  0
   -2.0264    0.6119    3.6015 N   0  0  0  0  0  0  0  0  0  0  0  0
   -1.1017   -4.1838   -0.4410 B   0  0  0  0  0  0  0  0  0  0  0  0
   -3.2181    0.0417   -0.9586 N   0  0  0  0  0  0  0  0  0  0  0  0
    3.4478    1.2586   -0.5141 B   0  0  0  0  0  0  0  0  0  0  0  0
    2.5821    1.6330    1.9365 N   0  0  0  0  0  0  0  0  0  0  0  0
    1.4721   -1.5550   -3.5156 B   0  0  0  0  0  0  0  0  0  0  0  0
   -2.1026    1.7542    2.7608 N   0  0  0  0  0  0  0  0  0  0  0  0
    2.0408    0.7119   -3.2115 B   0  0  0  0  0  0  0  0  0  0  0  0
   -2.7209   -1.3417    2.3206 N   0  0  0  0  0  0  0  0  0  0  0  0
    0.6586   -0.5389   -4.4869 B   0  0  0  0  0  0  0  0  0  0  0  0
   -0.1687   -3.7594   -1.3565 N   0  0  0  0  0  0  0  0  0  0  0  0
    0.4856   -2.1056    3.4338 B   0  0  0  0  0  0  0  0  0  0  0  0
   -0.5873   -1.2050    3.8245 N   0  0  0  0  0  0  0  0  0  0  0  0
   -3.2244   -1.4514    1.0003 B   0  0  0  0  0  0  0  0  0  0  0  0
    2.6713   -0.8555    2.6211 N   0  0  0  0  0  0  0  0  0  0  0  0
    1.8786    3.3393   -0.1064 B   0  0  0  0  0  0  0  0  0  0  0  0
    2.8769   -2.3318   -0.7936 N   0  0  0  0  0  0  0  0  0  0  0  0
  3  4  1  0  0  0  0
  5  6  1  0  0  0  0
  7  8  1  0  0  0  0
  2 10  4  0  0  0  0
  7 10  1  0  0  0  0
  9 10  1  0  0  0  0
  2 11  2  0  0  0  0
  3 11  1  0  0  0  0
  1 12  1  0  0  0  0
  3 12  1  0  0  0  0
  4 12  1  0  0  0  0
  3 13  1  0  0  0  0
  4 13  1  0  0  0  0
  4 14  1  0  0  0  0
  5 14  4  0  0  0  0
 13 14  1  0  0  0  0
  5 15  1  0  0  0  0
  6 16  4  0  0  0  0
  7 16  4  0  0  0  0
 14 16  1  0  0  0  0
  6 17  1  0  0  0  0
  1 18  1  0  0  0  0
  1 19  1  0  0  0  0
 12 19  1  0  0  0  0
 11 20  1  0  0  0  0
  3 21  1  0  0  0  0
  3 22  1  0  0  0  0
 12 22  1  0  0  0  0
  4 23  1  0  0  0  0
  4 24  1  0  0  0  0
 12 24  1  0  0  0  0
  5 25  1  0  0  0  0
 15 26  1  0  0  0  0
 17 27  1  0  0  0  0
  6 28  1  0  0  0  0
  9 29  1  0  0  0  0
  8 30  1  0  0  0  0
  8 31  1  0  0  0  0
 39 40  1  0  0  0  0
 42 43  1  0  0  0  0
 38 45  1  0  0  0  0
 41 46  1  0  0  0  0
 45 48  1  0  0  0  0
 47 50  1  0  0  0  0
 49 51  1  0  0  0  0
 39 52  1  0  0  0  0
 42 53  1  0  0  0  0
 38 54  1  0  0  0  0
 51 55  1  0  0  0  0
 53 56  1  0  0  0  0
 37 58  1  0  0  0  0
 45 59  1  0  0  0  0
 54 59  1  0  0  0  0
 58 61  1  0  0  0  0
 35 62  1  0  0  0  0
 57 62  1  0  0  0  0
 59 64  1  0  0  0  0
 46 65  1  0  0  0  0
 52 66  1  0  0  0  0
 65 66  1  0  0  0  0
 47 67  1  0  0  0  0
 54 67  1  0  0  0  0
 50 68  1  0  0  0  0
 36 69  1  0  0  0  0
 43 70  1  0  0  0  0
 47 70  1  0  0  0  0
 38 71  1  0  0  0  0
 56 71  1  0  0  0  0
 70 71  1  0  0  0  0
 36 72  1  0  0  0  0
 69 72  1  0  0  0  0
 48 73  1  0  0  0  0
 55 73  1  0  0  0  0
 61 74  1  0  0  0  0
 63 74  1  0  0  0  0
 66 74  1  0  0  0  0
 58 75  1  0  0  0  0
 69 75  1  0  0  0  0
 52 76  1  0  0  0  0
 72 77  1  0  0  0  0
 32 78  1  0  0  0  0
 33 78  1  0  0  0  0
 57 78  1  0  0  0  0
 34 79  1  0  0  0  0
 68 79  1  0  0  0  0
 40 80  1  0  0  0  0
 44 80  1  0  0  0  0
 68 80  1  0  0  0  0
 42 81  1  0  0  0  0
 53 81  1  0  0  0  0
 40 82  1  0  0  0  0
 50 82  1  0  0  0  0
 43 83  1  0  0  0  0
 76 83  1  0  0  0  0
 82 83  1  0  0  0  0
 32 84  1  0  0  0  0
 77 84  1  0  0  0  0
 41 85  1  0  0  0  0
 77 85  1  0  0  0  0
 51 86  1  0  0  0  0
 60 87  1  0  0  0  0
 73 87  1  0  0  0  0
 61 88  1  0  0  0  0
 75 88  1  0  0  0  0
 63 89  1  0  0  0  0
 76 89  1  0  0  0  0
 81 89  1  0  0  0  0
 33 90  1  0  0  0  0
 34 90  1  0  0  0  0
 57 90  1  0  0  0  0
 33 91  1  0  0  0  0
 64 91  1  0  0  0  0
 86 91  1  0  0  0  0
 35 92  1  0  0  0  0
 46 92  1  0  0  0  0
 48 93  1  0  0  0  0
 56 93  1  0  0  0  0
 87 93  1  0  0  0  0
 35 94  1  0  0  0  0
 44 94  1  0  0  0  0
 79 94  1  0  0  0  0
 37 95  1  0  0  0  0
 60 95  1  0  0  0  0
 39 96  1  0  0  0  0
 44 96  1  0  0  0  0
 92 96  1  0  0  0  0
 41 97  1  0  0  0  0
 65 97  1  0  0  0  0
 88 97  1  0  0  0  0
 36 98  1  0  0  0  0
 49 98  1  0  0  0  0
 55 99  1  0  0  0  0
 60 99  1  0  0  0  0
 98 99  1  0  0  0  0
 37100  1  0  0  0  0
 63100  1  0  0  0  0
 95100  1  0  0  0  0
 32101  1  0  0  0  0
 49101  1  0  0  0  0
 86101  1  0  0  0  0
 34102  1  0  0  0  0
 64102  1  0  0  0  0
 67102  1  0  0  0  0
 62103  1  0  0  0  0
 84103  1  0  0  0  0
 85103  1  0  0  0  0
M  END
