 xtb: 6.7.1pre (5071a88)
          08312618253D

103 69  0     0  0            999 V2000
   -1.8467    0.6795   -0.9404 N   0  0  0  0  0  0  0  0  0  0  0  0
   -1.1467    0.4692    0.3089 C   0  0  0  0  0  0  0  0  0  0  0  0
   -0.0496    1.4878    0.3982 C   0  0  0  0  0  0  0  0  0  0  0  0
    1.0595    1.1262   -0.5578 C   0  0  0  0  0  0  0  0  0  0  0  0
    1.6139   -0.2473   -0.2805 C   0  0  0  0  0  0  0  0  0  0  0  0
    0.5038   -1.2353   -0.5066 C   0  0  0  0  0  0  0  0  0  0  0  0
   -0.6692   -0.9521    0.4000 C   0  0  0  0  0  0  0  0  0  0  0  0
   -0.4020   -1.3001    1.7740 N   0  0  0  0  0  0  0  0  0  0  0  0
   -2.2917   -0.9389   -0.0555 O   0  0  0  0  0  0  0  0  0  0  0  0
   -1.2486   -0.2830    0.1376 C   0  0  0  0  0  0  0  0  0  0  0  0
   -1.2477    1.0705    0.5761 O   0  0  0  0  0  0  0  0  0  0  0  0
   -0.4169    2.0541   -1.0651 Pt  0  0  0  0  0  0  0  0  0  0  0  0
    1.2590    1.3403    0.6744 O   0  0  0  0  0  0  0  0  0  0  0  0
    1.2159    0.0593    0.2288 C   0  0  0  0  0  0  0  0  0  0  0  0
    2.3786   -0.4822    0.0197 O   0  0  0  0  0  0  0  0  0  0  0  0
    0.1039   -0.8085   -0.0539 C   0  0  0  0  0  0  0  0  0  0  0  0
    0.2475   -2.0116   -0.4621 O   0  0  0  0  0  0  0  0  0  0  0  0
   -1.5975   -0.0408   -1.6560 H   0  0  0  0  0  0  0  0  0  0  0  0
   -1.7003    1.6498   -1.2889 H   0  0  0  0  0  0  0  0  0  0  0  0
   -1.8567    0.6495    1.1276 H   0  0  0  0  0  0  0  0  0  0  0  0
    0.3209    1.6682    1.4143 H   0  0  0  0  0  0  0  0  0  0  0  0
   -0.4789    2.4558    0.0447 H   0  0  0  0  0  0  0  0  0  0  0  0
    1.8882    1.8463   -0.5359 H   0  0  0  0  0  0  0  0  0  0  0  0
    0.6676    1.1146   -1.5899 H   0  0  0  0  0  0  0  0  0  0  0  0
    2.4236   -0.4404   -1.0004 H   0  0  0  0  0  0  0  0  0  0  0  0
    1.9420   -0.2904    0.7716 H   0  0  0  0  0  0  0  0  0  0  0  0
    0.8805   -2.2430   -0.2813 H   0  0  0  0  0  0  0  0  0  0  0  0
    0.1256   -1.1810   -1.5409 H   0  0  0  0  0  0  0  0  0  0  0  0
   -1.5046   -1.6008    0.0342 H   0  0  0  0  0  0  0  0  0  0  0  0
   -0.8001   -2.2380    2.0161 H   0  0  0  0  0  0  0  0  0  0  0  0
    0.6265   -1.3776    1.8887 H   0  0  0  0  0  0  0  0  0  0  0  0
    2.1012    0.0000    3.3450 B   0  0  0  0  0  0  0  0  0  0  0  0
   -2.1012    0.0000    3.3450 B   0  0  0  0  0  0  0  0  0  0  0  0
    0.0000    2.1012    3.3450 B   0  0  0  0  0  0  0  0  0  0  0  0
    0.0000   -2.1012    3.3450 B   0  0  0  0  0  0  0  0  0  0  0  0
    3.3450    2.1012    0.0000 B   0  0  0  0  0  0  0  0  0  0  0  0
    3.3450   -2.1012    0.0000 B   0  0  0  0  0  0  0  0  0  0  0  0
    3.3450    0.0000    2.1012 B   0  0  0  0  0  0  0  0  0  0  0  0
    3.3450    0.0000   -2.1012 B   0  0  0  0  0  0  0  0  0  0  0  0
   -3.3450    2.1012    0.0000 B   0  0  0  0  0  0  0  0  0  0  0  0
   -3.3450   -2.1012    0.0000 B   0  0  0  0  0  0  0  0  0  0  0  0
   -3.3450    0.0000    2.1012 B   0  0  0  0  0  0  0  0  0  0  0  0
   -3.3450    0.0000   -2.1012 B   0  0  0  0  0  0  0  0  0  0  0  0
    2.1012    0.0000   -3.3450 B   0  0  0  0  0  0  0  0  0  0  0  0
   -2.1012    0.0000   -3.3450 B   0  0  0  0  0  0  0  0  0  0  0  0
    0.0000    2.1012   -3.3450 B   0  0  0  0  0  0  0  0  0  0  0  0
    0.0000   -2.1012   -3.3450 B   0  0  0  0  0  0  0  0  0  0  0  0
    0.0000    3.3450    2.1012 B   0  0  0  0  0  0  0  0  0  0  0  0
    0.0000    3.3450   -2.1012 B   0  0  0  0  0  0  0  0  0  0  0  0
    0.0000   -3.3450    2.1012 B   0  0  0  0  0  0  0  0  0  0  0  0
    0.0000   -3.3450   -2.1012 B   0  0  0  0  0  0  0  0  0  0  0  0
    2.1012    3.3450    0.0000 B   0  0  0  0  0  0  0  0  0  0  0  0
   -2.1012    3.3450    0.0000 B   0  0  0  0  0  0  0  0  0  0  0  0
    2.1012   -3.3450    0.0000 B   0  0  0  0  0  0  0  0  0  0  0  0
   -2.1012   -3.3450    0.0000 B   0  0  0  0  0  0  0  0  0  0  0  0
    1.4800    1.4800    3.5800 B   0  0  0  0  0  0  0  0  0  0  0  0
   -1.4800    1.4800    3.5800 B   0  0  0  0  0  0  0  0  0  0  0  0
    1.4800   -1.4800    3.5800 B   0  0  0  0  0  0  0  0  0  0  0  0
   -1.4800   -1.4800    3.5800 B   0  0  0  0  0  0  0  0  0  0  0  0
    3.5800    1.4800    1.4800 B   0  0  0  0  0  0  0  0  0  0  0  0
    3.5800   -1.4800    1.4800 B   0  0  0  0  0  0  0  0  0  0  0  0
    3.5800    1.4800   -1.4800 B   0  0  0  0  0  0  0  0  0  0  0  0
    3.5800   -1.4800   -1.4800 B   0  0  0  0  0  0  0  0  0  0  0  0
   -3.5800    1.4800    1.4800 B   0  0  0  0  0  0  0  0  0  0  0  0
   -3.5800   -1.4800    1.4800 B   0  0  0  0  0  0  0  0  0  0  0  0
   -3.5800    1.4800   -1.4800 B   0  0  0  0  0  0  0  0  0  0  0  0
   -3.5800   -1.4800   -1.4800 B   0  0  0  0  0  0  0  0  0  0  0  0
    2.1012    0.0000    3.9200 N   0  0  0  0  0  0  0  0  0  0  0  0
   -2.1012    0.0000    3.9200 N   0  0  0  0  0  0  0  0  0  0  0  0
    0.0000    2.1012    3.9200 N   0  0  0  0  0  0  0  0  0  0  0  0
    0.0000   -2.1012    3.9200 N   0  0  0  0  0  0  0  0  0  0  0  0
    3.9200    2.1012    0.0000 N   0  0  0  0  0  0  0  0  0  0  0  0
    3.9200   -2.1012    0.0000 N   0  0  0  0  0  0  0  0  0  0  0  0
    3.9200    0.0000    2.1012 N   0  0  0  0  0  0  0  0  0  0  0  0
    3.9200    0.0000   -2.1012 N   0  0  0  0  0  0  0  0  0  0  0  0
   -3.9200    2.1012    0.0000 N   0  0  0  0  0  0  0  0  0  0  0  0
   -3.9200   -2.1012    0.0000 N   0  0  0  0  0  0  0  0  0  0  0  0
   -3.9200    0.0000    2.1012 N   0  0  0  0  0  0  0  0  0  0  0  0
   -3.9200    0.0000   -2.1012 N   0  0  0  0  0  0  0  0  0  0  0  0
    2.1012    0.0000   -3.9200 N   0  0  0  0  0  0  0  0  0  0  0  0
   -2.1012    0.0000   -3.9200 N   0  0  0  0  0  0  0  0  0  0  0  0
    0.0000    2.1012   -3.9200 N   0  0  0  0  0  0  0  0  0  0  0  0
    0.0000   -2.1012   -3.9200 N   0  0  0  0  0  0  0  0  0  0  0  0
    0.0000    3.9200    2.1012 N   0  0  0  0  0  0  0  0  0  0  0  0
    0.0000    3.9200   -2.1012 N   0  0  0  0  0  0  0  0  0  0  0  0
    0.0000   -3.9200    2.1012 N   0  0  0  0  0  0  0  0  0  0  0  0
    0.0000   -3.9200   -2.1012 N   0  0  0  0  0  0  0  0  0  0  0  0
    2.1012    3.9200    0.0000 N   0  0  0  0  0  0  0  0  0  0  0  0
   -2.1012    3.9200    0.0000 N   0  0  0  0  0  0  0  0  0  0  0  0
    2.1012   -3.9200    0.0000 N   0  0  0  0  0  0  0  0  0  0  0  0
   -2.1012   -3.9200    0.0000 N   0  0  0  0  0  0  0  0  0  0  0  0
    1.4800    1.4800    4.2200 N   0  0  0  0  0  0  0  0  0  0  0  0
   -1.4800    1.4800    4.2200 N   0  0  0  0  0  0  0  0  0  0  0  0
    1.4800   -1.4800    4.2200 N   0  0  0  0  0  0  0  0  0  0  0  0
   -1.4800   -1.4800    4.2200 N   0  0  0  0  0  0  0  0  0  0  0  0
    4.2200    1.4800    1.4800 N   0  0  0  0  0  0  0  0  0  0  0  0
    4.2200   -1.4800    1.4800 N   0  0  0  0  0  0  0  0  0  0  0  0
    4.2200    1.4800   -1.4800 N   0  0  0  0  0  0  0  0  0  0  0  0
    4.2200   -1.4800   -1.4800 N   0  0  0  0  0  0  0  0  0  0  0  0
   -4.2200    1.4800    1.4800 N   0  0  0  0  0  0  0  0  0  0  0  0
   -4.2200   -1.4800    1.4800 N   0  0  0  0  0  0  0  0  0  0  0  0
   -4.2200    1.4800   -1.4800 N   0  0  0  0  0  0  0  0  0  0  0  0
   -4.2200   -1.4800   -1.4800 N   0  0  0  0  0  0  0  0  0  0  0  0
  3  4  1  0  0  0  0
  5  6  1  0  0  0  0
  7  8  1  0  0  0  0
  2 10  4  0  0  0  0
  7 10  1  0  0  0  0
  9 10  1  0  0  0  0
  2 11  2  0  0  0  0
  3 11  1  0  0  0  0
  3 12  1  0  0  0  0
  4 12  1  0  0  0  0
  3 13  1  0  0  0  0
  4 13  1  0  0  0  0
  4 14  1  0  0  0  0
  5 14  4  0  0  0  0
 13 14  1  0  0  0  0
  5 15  1  0  0  0  0
  6 16  4  0  0  0  0
  7 16  4  0  0  0  0
 14 16  1  0  0  0  0
  6 17  1  0  0  0  0
  1 18  1  0  0  0  0
  1 19  1  0  0  0  0
  3 21  1  0  0  0  0
  3 22  1  0  0  0  0
  4 23  1  0  0  0  0
  4 24  1  0  0  0  0
 15 26  1  0  0  0  0
 17 27  1  0  0  0  0
  6 28  1  0  0  0  0
  9 29  1  0  0  0  0
  8 30  1  0  0  0  0
  8 31  1  0  0  0  0
 12 49  1  0  0  0  0
 32 68  3  0  0  0  0
 33 69  3  0  0  0  0
 34 70  3  0  0  0  0
 35 71  3  0  0  0  0
 36 72  3  0  0  0  0
 37 73  3  0  0  0  0
 38 74  3  0  0  0  0
 39 75  3  0  0  0  0
 40 76  3  0  0  0  0
 41 77  3  0  0  0  0
 42 78  3  0  0  0  0
 43 79  3  0  0  0  0
 44 80  3  0  0  0  0
 45 81  3  0  0  0  0
 46 82  3  0  0  0  0
 47 83  3  0  0  0  0
 48 84  3  0  0  0  0
 49 85  3  0  0  0  0
 50 86  3  0  0  0  0
 51 87  3  0  0  0  0
 52 88  3  0  0  0  0
 53 89  3  0  0  0  0
 54 90  3  0  0  0  0
 55 91  3  0  0  0  0
 56 92  3  0  0  0  0
 57 93  3  0  0  0  0
 58 94  3  0  0  0  0
 59 95  3  0  0  0  0
 60 96  3  0  0  0  0
 61 97  3  0  0  0  0
 62 98  3  0  0  0  0
 63 99  3  0  0  0  0
 64100  3  0  0  0  0
 65101  3  0  0  0  0
 66102  3  0  0  0  0
 67103  3  0  0  0  0
M  END
