 xtb: 6.7.1pre (5071a88)
          08312618413D

136115  0     0  0            999 V2000
    8.9114    3.7804    0.4795 C   0  0  0  0  0  0  0  0  0  0  0  0
    9.5265    3.0553   -1.0226 S   0  0  0  0  0  0  0  0  0  0  0  0
    9.6374    4.1257   -1.9958 O   0  0  0  0  0  0  0  0  0  0  0  0
   10.6797    2.2444   -0.6832 O   0  0  0  0  0  0  0  0  0  0  0  0
    8.2063    1.9793   -1.5570 C   0  0  0  0  0  0  0  0  0  0  0  0
    8.0922    0.7379   -0.6851 C   0  0  0  0  0  0  0  0  0  0  0  0
    6.9561   -0.0808   -1.1187 N   0  0  0  0  0  0  0  0  0  0  0  0
    6.8894   -1.3343   -0.3617 C   0  0  0  0  0  0  0  0  0  0  0  0
    5.6691   -2.0919   -0.7465 C   0  0  0  0  0  0  0  0  0  0  0  0
    5.4173   -3.0726   -1.6743 C   0  0  0  0  0  0  0  0  0  0  0  0
    4.0387   -3.3720   -1.5611 C   0  0  0  0  0  0  0  0  0  0  0  0
    3.4940   -2.5621   -0.5666 C   0  0  0  0  0  0  0  0  0  0  0  0
    2.1630   -2.4568   -0.0655 C   0  0  0  0  0  0  0  0  0  0  0  0
    1.1918   -3.3310   -0.3869 C   0  0  0  0  0  0  0  0  0  0  0  0
   -0.1436   -3.3263    0.1866 C   0  0  0  0  0  0  0  0  0  0  0  0
   -1.0307   -2.3023    0.1350 C   0  0  0  0  0  0  0  0  0  0  0  0
   -2.2473   -2.4713    0.7833 N   0  0  0  0  0  0  0  0  0  0  0  0
   -3.4218   -1.7004    0.7401 C   0  0  0  0  0  0  0  0  0  0  0  0
   -3.6806   -0.7201   -0.2211 C   0  0  0  0  0  0  0  0  0  0  0  0
   -4.8571    0.0446   -0.1966 C   0  0  0  0  0  0  0  0  0  0  0  0
   -5.8075   -0.1489    0.8056 C   0  0  0  0  0  0  0  0  0  0  0  0
   -6.9822    0.5450    0.9151 O   0  0  0  0  0  0  0  0  0  0  0  0
   -7.2616    1.5433   -0.0604 C   0  0  0  0  0  0  0  0  0  0  0  0
   -8.6064    2.1431    0.2718 C   0  0  0  0  0  0  0  0  0  0  0  0
   -8.6576    3.2744    1.1101 C   0  0  0  0  0  0  0  0  0  0  0  0
   -9.8782    3.8520    1.4675 C   0  0  0  0  0  0  0  0  0  0  0  0
  -11.0677    3.3022    0.9999 C   0  0  0  0  0  0  0  0  0  0  0  0
  -11.0301    2.1754    0.1842 C   0  0  0  0  0  0  0  0  0  0  0  0
  -12.1935    1.6644   -0.2476 F   0  0  0  0  0  0  0  0  0  0  0  0
   -9.8150    1.5874   -0.1800 C   0  0  0  0  0  0  0  0  0  0  0  0
   -9.8488    0.1815   -1.1858 Cl  0  0  0  0  0  0  0  0  0  0  0  0
   -5.5534   -1.1225    1.7805 C   0  0  0  0  0  0  0  0  0  0  0  0
   -6.6734   -1.4222    3.0663 Cl  0  0  0  0  0  0  0  0  0  0  0  0
   -4.3780   -1.8831    1.7484 C   0  0  0  0  0  0  0  0  0  0  0  0
   -0.7143   -1.1873   -0.6036 N   0  0  0  0  0  0  0  0  0  0  0  0
    0.1959   -0.3708   -0.1764 C   0  0  0  0  0  0  0  0  0  0  0  0
    0.9564   -0.4921    0.9551 N   0  0  0  0  0  0  0  0  0  0  0  0
    1.8715   -1.4081    0.9583 C   0  0  0  0  0  0  0  0  0  0  0  0
    4.5242   -1.7784   -0.0821 O   0  0  0  0  0  0  0  0  0  0  0  0
    8.7913    3.0029    1.2346 H   0  0  0  0  0  0  0  0  0  0  0  0
    7.9594    4.2716    0.2703 H   0  0  0  0  0  0  0  0  0  0  0  0
    9.6417    4.5167    0.8222 H   0  0  0  0  0  0  0  0  0  0  0  0
    7.2852    2.5718   -1.5540 H   0  0  0  0  0  0  0  0  0  0  0  0
    8.4298    1.7033   -2.5936 H   0  0  0  0  0  0  0  0  0  0  0  0
    9.0183    0.1556   -0.7602 H   0  0  0  0  0  0  0  0  0  0  0  0
    7.9634    1.0188    0.3656 H   0  0  0  0  0  0  0  0  0  0  0  0
    6.0776    0.4196   -0.9750 H   0  0  0  0  0  0  0  0  0  0  0  0
    6.8632   -1.1341    0.7163 H   0  0  0  0  0  0  0  0  0  0  0  0
    7.7754   -1.9460   -0.5678 H   0  0  0  0  0  0  0  0  0  0  0  0
    6.1361   -3.5074   -2.3552 H   0  0  0  0  0  0  0  0  0  0  0  0
    3.4974   -4.0964   -2.1541 H   0  0  0  0  0  0  0  0  0  0  0  0
    1.3790   -4.1575   -1.0667 H   0  0  0  0  0  0  0  0  0  0  0  0
   -0.4146   -4.2519    0.6882 H   0  0  0  0  0  0  0  0  0  0  0  0
   -2.3065   -3.2933    1.3699 H   0  0  0  0  0  0  0  0  0  0  0  0
   -2.9794   -0.5454   -1.0324 H   0  0  0  0  0  0  0  0  0  0  0  0
   -4.9883    0.7783   -0.9849 H   0  0  0  0  0  0  0  0  0  0  0  0
   -7.2667    1.1247   -1.0732 H   0  0  0  0  0  0  0  0  0  0  0  0
   -6.4969    2.3302   -0.0254 H   0  0  0  0  0  0  0  0  0  0  0  0
   -7.7370    3.7069    1.5002 H   0  0  0  0  0  0  0  0  0  0  0  0
   -9.8988    4.7246    2.1164 H   0  0  0  0  0  0  0  0  0  0  0  0
  -12.0253    3.7363    1.2701 H   0  0  0  0  0  0  0  0  0  0  0  0
   -4.2080   -2.6205    2.5286 H   0  0  0  0  0  0  0  0  0  0  0  0
    0.3875    0.5319   -0.7819 H   0  0  0  0  0  0  0  0  0  0  0  0
    2.5444   -1.4394    1.8336 H   0  0  0  0  0  0  0  0  0  0  0  0
    2.1012    0.0000    3.3450 B   0  0  0  0  0  0  0  0  0  0  0  0
   -2.1012    0.0000    3.3450 B   0  0  0  0  0  0  0  0  0  0  0  0
    0.0000    2.1012    3.3450 B   0  0  0  0  0  0  0  0  0  0  0  0
    0.0000   -2.1012    3.3450 B   0  0  0  0  0  0  0  0  0  0  0  0
    3.3450    2.1012    0.0000 B   0  0  0  0  0  0  0  0  0  0  0  0
    3.3450   -2.1012    0.0000 B   0  0  0  0  0  0  0  0  0  0  0  0
    3.3450    0.0000    2.1012 B   0  0  0  0  0  0  0  0  0  0  0  0
    3.3450    0.0000   -2.1012 B   0  0  0  0  0  0  0  0  0  0  0  0
   -3.3450    2.1012    0.0000 B   0  0  0  0  0  0  0  0  0  0  0  0
   -3.3450   -2.1012    0.0000 B   0  0  0  0  0  0  0  0  0  0  0  0
   -3.3450    0.0000    2.1012 B   0  0  0  0  0  0  0  0  0  0  0  0
   -3.3450    0.0000   -2.1012 B   0  0  0  0  0  0  0  0  0  0  0  0
    2.1012    0.0000   -3.3450 B   0  0  0  0  0  0  0  0  0  0  0  0
   -2.1012    0.0000   -3.3450 B   0  0  0  0  0  0  0  0  0  0  0  0
    0.0000    2.1012   -3.3450 B   0  0  0  0  0  0  0  0  0  0  0  0
    0.0000   -2.1012   -3.3450 B   0  0  0  0  0  0  0  0  0  0  0  0
    0.0000    3.3450    2.1012 B   0  0  0  0  0  0  0  0  0  0  0  0
    0.0000    3.3450   -2.1012 B   0  0  0  0  0  0  0  0  0  0  0  0
    0.0000   -3.3450    2.1012 B   0  0  0  0  0  0  0  0  0  0  0  0
    0.0000   -3.3450   -2.1012 B   0  0  0  0  0  0  0  0  0  0  0  0
    2.1012    3.3450    0.0000 B   0  0  0  0  0  0  0  0  0  0  0  0
   -2.1012    3.3450    0.0000 B   0  0  0  0  0  0  0  0  0  0  0  0
    2.1012   -3.3450    0.0000 B   0  0  0  0  0  0  0  0  0  0  0  0
   -2.1012   -3.3450    0.0000 B   0  0  0  0  0  0  0  0  0  0  0  0
    1.4800    1.4800    3.5800 B   0  0  0  0  0  0  0  0  0  0  0  0
   -1.4800    1.4800    3.5800 B   0  0  0  0  0  0  0  0  0  0  0  0
    1.4800   -1.4800    3.5800 B   0  0  0  0  0  0  0  0  0  0  0  0
   -1.4800   -1.4800    3.5800 B   0  0  0  0  0  0  0  0  0  0  0  0
    3.5800    1.4800    1.4800 B   0  0  0  0  0  0  0  0  0  0  0  0
    3.5800   -1.4800    1.4800 B   0  0  0  0  0  0  0  0  0  0  0  0
    3.5800    1.4800   -1.4800 B   0  0  0  0  0  0  0  0  0  0  0  0
    3.5800   -1.4800   -1.4800 B   0  0  0  0  0  0  0  0  0  0  0  0
   -3.5800    1.4800    1.4800 B   0  0  0  0  0  0  0  0  0  0  0  0
   -3.5800   -1.4800    1.4800 B   0  0  0  0  0  0  0  0  0  0  0  0
   -3.5800    1.4800   -1.4800 B   0  0  0  0  0  0  0  0  0  0  0  0
   -3.5800   -1.4800   -1.4800 B   0  0  0  0  0  0  0  0  0  0  0  0
    2.1012    0.0000    3.9200 N   0  0  0  0  0  0  0  0  0  0  0  0
   -2.1012    0.0000    3.9200 N   0  0  0  0  0  0  0  0  0  0  0  0
    0.0000    2.1012    3.9200 N   0  0  0  0  0  0  0  0  0  0  0  0
    0.0000   -2.1012    3.9200 N   0  0  0  0  0  0  0  0  0  0  0  0
    3.9200    2.1012    0.0000 N   0  0  0  0  0  0  0  0  0  0  0  0
    3.9200   -2.1012    0.0000 N   0  0  0  0  0  0  0  0  0  0  0  0
    3.9200    0.0000    2.1012 N   0  0  0  0  0  0  0  0  0  0  0  0
    3.9200    0.0000   -2.1012 N   0  0  0  0  0  0  0  0  0  0  0  0
   -3.9200    2.1012    0.0000 N   0  0  0  0  0  0  0  0  0  0  0  0
   -3.9200   -2.1012    0.0000 N   0  0  0  0  0  0  0  0  0  0  0  0
   -3.9200    0.0000    2.1012 N   0  0  0  0  0  0  0  0  0  0  0  0
   -3.9200    0.0000   -2.1012 N   0  0  0  0  0  0  0  0  0  0  0  0
    2.1012    0.0000   -3.9200 N   0  0  0  0  0  0  0  0  0  0  0  0
   -2.1012    0.0000   -3.9200 N   0  0  0  0  0  0  0  0  0  0  0  0
    0.0000    2.1012   -3.9200 N   0  0  0  0  0  0  0  0  0  0  0  0
    0.0000   -2.1012   -3.9200 N   0  0  0  0  0  0  0  0  0  0  0  0
    0.0000    3.9200    2.1012 N   0  0  0  0  0  0  0  0  0  0  0  0
    0.0000    3.9200   -2.1012 N   0  0  0  0  0  0  0  0  0  0  0  0
    0.0000   -3.9200    2.1012 N   0  0  0  0  0  0  0  0  0  0  0  0
    0.0000   -3.9200   -2.1012 N   0  0  0  0  0  0  0  0  0  0  0  0
    2.1012    3.9200    0.0000 N   0  0  0  0  0  0  0  0  0  0  0  0
   -2.1012    3.9200    0.0000 N   0  0  0  0  0  0  0  0  0  0  0  0
    2.1012   -3.9200    0.0000 N   0  0  0  0  0  0  0  0  0  0  0  0
   -2.1012   -3.9200    0.0000 N   0  0  0  0  0  0  0  0  0  0  0  0
    1.4800    1.4800    4.2200 N   0  0  0  0  0  0  0  0  0  0  0  0
   -1.4800    1.4800    4.2200 N   0  0  0  0  0  0  0  0  0  0  0  0
    1.4800   -1.4800    4.2200 N   0  0  0  0  0  0  0  0  0  0  0  0
   -1.4800   -1.4800    4.2200 N   0  0  0  0  0  0  0  0  0  0  0  0
    4.2200    1.4800    1.4800 N   0  0  0  0  0  0  0  0  0  0  0  0
    4.2200   -1.4800    1.4800 N   0  0  0  0  0  0  0  0  0  0  0  0
    4.2200    1.4800   -1.4800 N   0  0  0  0  0  0  0  0  0  0  0  0
    4.2200   -1.4800   -1.4800 N   0  0  0  0  0  0  0  0  0  0  0  0
   -4.2200    1.4800    1.4800 N   0  0  0  0  0  0  0  0  0  0  0  0
   -4.2200   -1.4800    1.4800 N   0  0  0  0  0  0  0  0  0  0  0  0
   -4.2200    1.4800   -1.4800 N   0  0  0  0  0  0  0  0  0  0  0  0
   -4.2200   -1.4800   -1.4800 N   0  0  0  0  0  0  0  0  0  0  0  0
  1  2  1  0  0  0  0
  2  3  2  0  0  0  0
  2  4  2  0  0  0  0
  2  5  1  0  0  0  0
  5  6  1  0  0  0  0
  6  7  1  0  0  0  0
  7  8  1  0  0  0  0
  8  9  1  0  0  0  0
  9 10  4  0  0  0  0
 10 11  4  0  0  0  0
 11 12  1  0  0  0  0
 12 13  1  0  0  0  0
 13 14  1  0  0  0  0
 14 15  1  0  0  0  0
 15 16  4  0  0  0  0
 16 17  1  0  0  0  0
 17 18  1  0  0  0  0
 18 19  1  0  0  0  0
 19 20  1  0  0  0  0
 20 21  4  0  0  0  0
 21 22  1  0  0  0  0
 22 23  1  0  0  0  0
 23 24  1  0  0  0  0
 24 25  4  0  0  0  0
 25 26  4  0  0  0  0
 26 27  4  0  0  0  0
 27 28  4  0  0  0  0
 28 29  1  0  0  0  0
 24 30  4  0  0  0  0
 28 30  4  0  0  0  0
 30 31  1  0  0  0  0
 21 32  1  0  0  0  0
 32 33  1  0  0  0  0
 32 34  1  0  0  0  0
 16 35  1  0  0  0  0
 35 36  4  0  0  0  0
 36 37  4  0  0  0  0
 13 38  1  0  0  0  0
 37 38  4  0  0  0  0
  9 39  1  0  0  0  0
  1 40  1  0  0  0  0
  1 41  1  0  0  0  0
  1 42  1  0  0  0  0
  5 43  1  0  0  0  0
  5 44  1  0  0  0  0
  6 45  1  0  0  0  0
  6 46  1  0  0  0  0
  7 47  1  0  0  0  0
  8 48  1  0  0  0  0
  8 49  1  0  0  0  0
 10 50  1  0  0  0  0
 11 51  1  0  0  0  0
 14 52  1  0  0  0  0
 15 53  1  0  0  0  0
 17 54  1  0  0  0  0
 19 55  1  0  0  0  0
 20 56  1  0  0  0  0
 23 57  1  0  0  0  0
 23 58  1  0  0  0  0
 25 59  1  0  0  0  0
 26 60  1  0  0  0  0
 27 61  1  0  0  0  0
 34 62  1  0  0  0  0
 36 63  1  0  0  0  0
 38 64  1  0  0  0  0
 12 70  1  0  0  0  0
 13 70  1  0  0  0  0
 17 74  1  0  0  0  0
 18 74  1  0  0  0  0
 13 87  1  0  0  0  0
 14 87  1  0  0  0  0
 17 88  1  0  0  0  0
 18 98  1  0  0  0  0
 65101  3  0  0  0  0
 66102  3  0  0  0  0
 67103  3  0  0  0  0
 68104  3  0  0  0  0
 69105  3  0  0  0  0
 12106  1  0  0  0  0
 39106  4  0  0  0  0
 70106  1  0  0  0  0
 71107  3  0  0  0  0
 72108  3  0  0  0  0
 73109  3  0  0  0  0
 18110  1  0  0  0  0
 74110  2  0  0  0  0
 75111  3  0  0  0  0
 76112  3  0  0  0  0
 77113  3  0  0  0  0
 78114  3  0  0  0  0
 79115  3  0  0  0  0
 80116  3  0  0  0  0
 81117  3  0  0  0  0
 82118  3  0  0  0  0
 83119  3  0  0  0  0
 84120  3  0  0  0  0
 85121  3  0  0  0  0
 86122  3  0  0  0  0
 14123  1  0  0  0  0
 87123  2  0  0  0  0
 88124  3  0  0  0  0
 89125  3  0  0  0  0
 90126  3  0  0  0  0
 91127  3  0  0  0  0
 92128  3  0  0  0  0
 93129  3  0  0  0  0
 94130  3  0  0  0  0
 95131  3  0  0  0  0
 96132  3  0  0  0  0
 97133  3  0  0  0  0
 18134  1  0  0  0  0
 34134  2  0  0  0  0
 98134  1  0  0  0  0
 99135  3  0  0  0  0
100136  3  0  0  0  0
M  END
