 xtb: 6.7.1pre (5071a88)
          08312621133D

136175  0     0  0            999 V2000
    8.9114    3.6991   11.5125 C   0  0  0  0  0  0  0  0  0  0  0  0
    9.5265    2.9740   10.0104 S   0  0  0  0  0  0  0  0  0  0  0  0
    9.6374    4.0444    9.0373 O   0  0  0  0  0  0  0  0  0  0  0  0
   10.6797    2.1631   10.3498 O   0  0  0  0  0  0  0  0  0  0  0  0
    8.2063    1.8980    9.4761 C   0  0  0  0  0  0  0  0  0  0  0  0
    8.0922    0.6566   10.3479 C   0  0  0  0  0  0  0  0  0  0  0  0
    6.9561   -0.1621    9.9143 N   0  0  0  0  0  0  0  0  0  0  0  0
    6.8894   -1.4156   10.6714 C   0  0  0  0  0  0  0  0  0  0  0  0
    5.6691   -2.1732   10.2866 C   0  0  0  0  0  0  0  0  0  0  0  0
    5.4173   -3.1539    9.3587 C   0  0  0  0  0  0  0  0  0  0  0  0
    4.0387   -3.4533    9.4720 C   0  0  0  0  0  0  0  0  0  0  0  0
    3.4940   -2.6433   10.4665 C   0  0  0  0  0  0  0  0  0  0  0  0
    2.1630   -2.5381   10.9676 C   0  0  0  0  0  0  0  0  0  0  0  0
    1.1918   -3.4123   10.6462 C   0  0  0  0  0  0  0  0  0  0  0  0
   -0.1436   -3.4076   11.2196 C   0  0  0  0  0  0  0  0  0  0  0  0
   -1.0307   -2.3836   11.1681 C   0  0  0  0  0  0  0  0  0  0  0  0
   -2.2473   -2.5526   11.8164 N   0  0  0  0  0  0  0  0  0  0  0  0
   -3.4218   -1.7816   11.7732 C   0  0  0  0  0  0  0  0  0  0  0  0
   -3.6806   -0.8013   10.8120 C   0  0  0  0  0  0  0  0  0  0  0  0
   -4.8571   -0.0367   10.8365 C   0  0  0  0  0  0  0  0  0  0  0  0
   -5.8075   -0.2302   11.8387 C   0  0  0  0  0  0  0  0  0  0  0  0
   -6.9822    0.4637   11.9482 O   0  0  0  0  0  0  0  0  0  0  0  0
   -7.2616    1.4620   10.9727 C   0  0  0  0  0  0  0  0  0  0  0  0
   -8.6064    2.0618   11.3048 C   0  0  0  0  0  0  0  0  0  0  0  0
   -8.6576    3.1931   12.1432 C   0  0  0  0  0  0  0  0  0  0  0  0
   -9.8782    3.7708   12.5006 C   0  0  0  0  0  0  0  0  0  0  0  0
  -11.0677    3.2209   12.0330 C   0  0  0  0  0  0  0  0  0  0  0  0
  -11.0301    2.0941   11.2173 C   0  0  0  0  0  0  0  0  0  0  0  0
  -12.1935    1.5831   10.7855 F   0  0  0  0  0  0  0  0  0  0  0  0
   -9.8150    1.5061   10.8531 C   0  0  0  0  0  0  0  0  0  0  0  0
   -9.8488    0.1003    9.8472 Cl  0  0  0  0  0  0  0  0  0  0  0  0
   -5.5534   -1.2037   12.8136 C   0  0  0  0  0  0  0  0  0  0  0  0
   -6.6734   -1.5035   14.0994 Cl  0  0  0  0  0  0  0  0  0  0  0  0
   -4.3780   -1.9644   12.7814 C   0  0  0  0  0  0  0  0  0  0  0  0
   -0.7143   -1.2686   10.4295 N   0  0  0  0  0  0  0  0  0  0  0  0
    0.1959   -0.4521   10.8567 C   0  0  0  0  0  0  0  0  0  0  0  0
    0.9564   -0.5734   11.9882 N   0  0  0  0  0  0  0  0  0  0  0  0
    1.8715   -1.4894   11.9914 C   0  0  0  0  0  0  0  0  0  0  0  0
    4.5242   -1.8596   10.9510 O   0  0  0  0  0  0  0  0  0  0  0  0
    8.7913    2.9216   12.2677 H   0  0  0  0  0  0  0  0  0  0  0  0
    7.9594    4.1903   11.3034 H   0  0  0  0  0  0  0  0  0  0  0  0
    9.6417    4.4354   11.8553 H   0  0  0  0  0  0  0  0  0  0  0  0
    7.2852    2.4905    9.4790 H   0  0  0  0  0  0  0  0  0  0  0  0
    8.4298    1.6220    8.4395 H   0  0  0  0  0  0  0  0  0  0  0  0
    9.0183    0.0744   10.2729 H   0  0  0  0  0  0  0  0  0  0  0  0
    7.9634    0.9375   11.3987 H   0  0  0  0  0  0  0  0  0  0  0  0
    6.0776    0.3384   10.0581 H   0  0  0  0  0  0  0  0  0  0  0  0
    6.8632   -1.2154   11.7494 H   0  0  0  0  0  0  0  0  0  0  0  0
    7.7754   -2.0273   10.4652 H   0  0  0  0  0  0  0  0  0  0  0  0
    6.1361   -3.5887    8.6779 H   0  0  0  0  0  0  0  0  0  0  0  0
    3.4974   -4.1777    8.8789 H   0  0  0  0  0  0  0  0  0  0  0  0
    1.3790   -4.2388    9.9663 H   0  0  0  0  0  0  0  0  0  0  0  0
   -0.4146   -4.3332   11.7212 H   0  0  0  0  0  0  0  0  0  0  0  0
   -2.3065   -3.3746   12.4030 H   0  0  0  0  0  0  0  0  0  0  0  0
   -2.9794   -0.6266   10.0007 H   0  0  0  0  0  0  0  0  0  0  0  0
   -4.9883    0.6970   10.0482 H   0  0  0  0  0  0  0  0  0  0  0  0
   -7.2667    1.0434    9.9599 H   0  0  0  0  0  0  0  0  0  0  0  0
   -6.4969    2.2490   11.0077 H   0  0  0  0  0  0  0  0  0  0  0  0
   -7.7370    3.6256   12.5332 H   0  0  0  0  0  0  0  0  0  0  0  0
   -9.8988    4.6433   13.1494 H   0  0  0  0  0  0  0  0  0  0  0  0
  -12.0253    3.6550   12.3032 H   0  0  0  0  0  0  0  0  0  0  0  0
   -4.2080   -2.7018   13.5616 H   0  0  0  0  0  0  0  0  0  0  0  0
    0.3875    0.4506   10.2512 H   0  0  0  0  0  0  0  0  0  0  0  0
    2.5444   -1.5207   12.8666 H   0  0  0  0  0  0  0  0  0  0  0  0
    3.4592   -1.4546    1.6280 B   0  0  0  0  0  0  0  0  0  0  0  0
    3.4564    1.1299    0.9400 N   0  0  0  0  0  0  0  0  0  0  0  0
    2.5399    2.3625   -1.2610 B   0  0  0  0  0  0  0  0  0  0  0  0
    2.2931   -0.6416   -2.7306 N   0  0  0  0  0  0  0  0  0  0  0  0
    0.6905   -3.5611    2.7027 B   0  0  0  0  0  0  0  0  0  0  0  0
   -2.9397   -2.6548    1.7095 N   0  0  0  0  0  0  0  0  0  0  0  0
   -1.0382    4.0851    1.8312 B   0  0  0  0  0  0  0  0  0  0  0  0
   -0.6193    0.0177   -3.9419 N   0  0  0  0  0  0  0  0  0  0  0  0
   -0.4737    1.4453   -4.0917 B   0  0  0  0  0  0  0  0  0  0  0  0
    1.2096   -3.7868   -1.7394 N   0  0  0  0  0  0  0  0  0  0  0  0
   -3.8445    2.2094   -0.4937 B   0  0  0  0  0  0  0  0  0  0  0  0
   -2.7729    2.7636   -1.2118 N   0  0  0  0  0  0  0  0  0  0  0  0
    1.4057    0.8181   -4.8893 B   0  0  0  0  0  0  0  0  0  0  0  0
   -0.2358    3.3642    2.8335 N   0  0  0  0  0  0  0  0  0  0  0  0
    0.8983   -2.8798   -2.8138 B   0  0  0  0  0  0  0  0  0  0  0  0
   -0.4918    3.7666   -1.0101 N   0  0  0  0  0  0  0  0  0  0  0  0
   -0.8060    2.1823    3.2819 B   0  0  0  0  0  0  0  0  0  0  0  0
    1.6561   -1.2744    3.5036 N   0  0  0  0  0  0  0  0  0  0  0  0
   -0.2485    3.4699   -2.3799 B   0  0  0  0  0  0  0  0  0  0  0  0
    1.3087    0.0689    3.8170 N   0  0  0  0  0  0  0  0  0  0  0  0
   -1.5974   -0.5599   -3.0847 B   0  0  0  0  0  0  0  0  0  0  0  0
   -3.8325    1.7768    0.8316 N   0  0  0  0  0  0  0  0  0  0  0  0
    0.3376    4.4960    1.1839 B   0  0  0  0  0  0  0  0  0  0  0  0
    0.0433   -0.0140    4.4567 N   0  0  0  0  0  0  0  0  0  0  0  0
   -2.7088    2.2268    1.6012 B   0  0  0  0  0  0  0  0  0  0  0  0
    3.7727   -0.1326   -0.7655 N   0  0  0  0  0  0  0  0  0  0  0  0
   -2.2534   -3.6394    1.0085 B   0  0  0  0  0  0  0  0  0  0  0  0
    1.0558    3.7334    2.2357 N   0  0  0  0  0  0  0  0  0  0  0  0
   -1.8256   -0.7775    3.2198 B   0  0  0  0  0  0  0  0  0  0  0  0
   -2.4368   -3.6019   -0.4508 N   0  0  0  0  0  0  0  0  0  0  0  0
    3.0187   -1.0737   -1.5028 B   0  0  0  0  0  0  0  0  0  0  0  0
   -3.1580   -1.2526   -0.3843 N   0  0  0  0  0  0  0  0  0  0  0  0
    2.0347    2.9223    1.5617 B   0  0  0  0  0  0  0  0  0  0  0  0
   -0.5074   -2.9001   -2.4328 N   0  0  0  0  0  0  0  0  0  0  0  0
   -1.6735   -2.1129   -2.4916 B   0  0  0  0  0  0  0  0  0  0  0  0
    0.5901    3.9646   -0.1102 N   0  0  0  0  0  0  0  0  0  0  0  0
    1.0903    2.9596   -3.1825 B   0  0  0  0  0  0  0  0  0  0  0  0
    0.0774   -4.3592    1.7213 N   0  0  0  0  0  0  0  0  0  0  0  0
   -1.7840    3.4524   -0.4082 B   0  0  0  0  0  0  0  0  0  0  0  0
   -2.0135    3.4185    1.0316 N   0  0  0  0  0  0  0  0  0  0  0  0
    1.4659   -4.2121    1.4991 B   0  0  0  0  0  0  0  0  0  0  0  0
   -0.7980    1.0642    4.1946 N   0  0  0  0  0  0  0  0  0  0  0  0
   -2.6662   -2.4021   -1.1753 B   0  0  0  0  0  0  0  0  0  0  0  0
   -1.0744   -4.4843    0.9912 N   0  0  0  0  0  0  0  0  0  0  0  0
   -2.5037    0.4914   -2.1091 B   0  0  0  0  0  0  0  0  0  0  0  0
    2.3527   -3.8873    0.4531 N   0  0  0  0  0  0  0  0  0  0  0  0
    3.9123   -0.2024    0.7259 B   0  0  0  0  0  0  0  0  0  0  0  0
    1.9285    1.9570   -2.4651 N   0  0  0  0  0  0  0  0  0  0  0  0
    1.0012    2.2544   -4.6225 B   0  0  0  0  0  0  0  0  0  0  0  0
   -4.1860    0.8290   -0.3475 N   0  0  0  0  0  0  0  0  0  0  0  0
   -1.3389    2.4537   -3.1149 B   0  0  0  0  0  0  0  0  0  0  0  0
   -2.3596    1.9326   -2.3058 N   0  0  0  0  0  0  0  0  0  0  0  0
    3.0731   -2.6455    0.6011 B   0  0  0  0  0  0  0  0  0  0  0  0
    2.3352   -3.6737   -0.9709 N   0  0  0  0  0  0  0  0  0  0  0  0
    2.2179    0.5458    2.8084 B   0  0  0  0  0  0  0  0  0  0  0  0
   -2.0264    0.6119    3.6015 N   0  0  0  0  0  0  0  0  0  0  0  0
   -1.1017   -4.1838   -0.4410 B   0  0  0  0  0  0  0  0  0  0  0  0
   -3.2181    0.0417   -0.9586 N   0  0  0  0  0  0  0  0  0  0  0  0
    3.4478    1.2586   -0.5141 B   0  0  0  0  0  0  0  0  0  0  0  0
    2.5821    1.6330    1.9365 N   0  0  0  0  0  0  0  0  0  0  0  0
    1.4721   -1.5550   -3.5156 B   0  0  0  0  0  0  0  0  0  0  0  0
   -2.1026    1.7542    2.7608 N   0  0  0  0  0  0  0  0  0  0  0  0
    2.0408    0.7119   -3.2115 B   0  0  0  0  0  0  0  0  0  0  0  0
   -2.7209   -1.3417    2.3206 N   0  0  0  0  0  0  0  0  0  0  0  0
    0.6586   -0.5389   -4.4869 B   0  0  0  0  0  0  0  0  0  0  0  0
   -0.1687   -3.7594   -1.3565 N   0  0  0  0  0  0  0  0  0  0  0  0
    0.4856   -2.1056    3.4338 B   0  0  0  0  0  0  0  0  0  0  0  0
   -0.5873   -1.2050    3.8245 N   0  0  0  0  0  0  0  0  0  0  0  0
   -3.2244   -1.4514    1.0003 B   0  0  0  0  0  0  0  0  0  0  0  0
    2.6713   -0.8555    2.6211 N   0  0  0  0  0  0  0  0  0  0  0  0
    1.8786    3.3393   -0.1064 B   0  0  0  0  0  0  0  0  0  0  0  0
    2.8769   -2.3318   -0.7936 N   0  0  0  0  0  0  0  0  0  0  0  0
  1  2  1  0  0  0  0
  2  3  2  0  0  0  0
  2  4  2  0  0  0  0
  2  5  1  0  0  0  0
  5  6  1  0  0  0  0
  6  7  1  0  0  0  0
  7  8  1  0  0  0  0
  8  9  1  0  0  0  0
  9 10  2  0  0  0  0
 10 11  4  0  0  0  0
 11 12  4  0  0  0  0
 12 13  1  0  0  0  0
 13 14  2  0  0  0  0
 14 15  1  0  0  0  0
 15 16  2  0  0  0  0
 16 17  1  0  0  0  0
 17 18  1  0  0  0  0
 18 19  4  0  0  0  0
 19 20  4  0  0  0  0
 20 21  4  0  0  0  0
 21 22  1  0  0  0  0
 22 23  1  0  0  0  0
 23 24  1  0  0  0  0
 24 25  4  0  0  0  0
 25 26  4  0  0  0  0
 26 27  4  0  0  0  0
 27 28  4  0  0  0  0
 28 29  1  0  0  0  0
 24 30  4  0  0  0  0
 28 30  4  0  0  0  0
 30 31  1  0  0  0  0
 21 32  4  0  0  0  0
 32 33  1  0  0  0  0
 18 34  4  0  0  0  0
 32 34  4  0  0  0  0
 16 35  1  0  0  0  0
 35 36  2  0  0  0  0
 36 37  1  0  0  0  0
 13 38  1  0  0  0  0
 37 38  2  0  0  0  0
  9 39  1  0  0  0  0
 12 39  1  0  0  0  0
  1 40  1  0  0  0  0
  1 41  1  0  0  0  0
  1 42  1  0  0  0  0
  5 43  1  0  0  0  0
  5 44  1  0  0  0  0
  6 45  1  0  0  0  0
  6 46  1  0  0  0  0
  7 47  1  0  0  0  0
  8 48  1  0  0  0  0
  8 49  1  0  0  0  0
 10 50  1  0  0  0  0
 11 51  1  0  0  0  0
 14 52  1  0  0  0  0
 15 53  1  0  0  0  0
 17 54  1  0  0  0  0
 19 55  1  0  0  0  0
 20 56  1  0  0  0  0
 23 57  1  0  0  0  0
 23 58  1  0  0  0  0
 25 59  1  0  0  0  0
 26 60  1  0  0  0  0
 27 61  1  0  0  0  0
 34 62  1  0  0  0  0
 36 63  1  0  0  0  0
 38 64  1  0  0  0  0
 72 73  1  0  0  0  0
 75 76  1  0  0  0  0
 71 78  1  0  0  0  0
 74 79  1  0  0  0  0
 78 81  1  0  0  0  0
 80 83  1  0  0  0  0
 82 84  1  0  0  0  0
 72 85  1  0  0  0  0
 75 86  1  0  0  0  0
 71 87  1  0  0  0  0
 84 88  1  0  0  0  0
 86 89  1  0  0  0  0
 70 91  1  0  0  0  0
 78 92  1  0  0  0  0
 87 92  1  0  0  0  0
 91 94  1  0  0  0  0
 68 95  1  0  0  0  0
 90 95  1  0  0  0  0
 92 97  1  0  0  0  0
 79 98  1  0  0  0  0
 85 99  1  0  0  0  0
 98 99  1  0  0  0  0
 80100  1  0  0  0  0
 87100  1  0  0  0  0
 83101  1  0  0  0  0
 69102  1  0  0  0  0
 76103  1  0  0  0  0
 80103  1  0  0  0  0
 71104  1  0  0  0  0
 89104  1  0  0  0  0
103104  1  0  0  0  0
 69105  1  0  0  0  0
102105  1  0  0  0  0
 81106  1  0  0  0  0
 88106  1  0  0  0  0
 94107  1  0  0  0  0
 96107  1  0  0  0  0
 99107  1  0  0  0  0
 91108  1  0  0  0  0
102108  1  0  0  0  0
 85109  1  0  0  0  0
105110  1  0  0  0  0
 65111  1  0  0  0  0
 66111  1  0  0  0  0
 90111  1  0  0  0  0
 67112  1  0  0  0  0
101112  1  0  0  0  0
 73113  1  0  0  0  0
 77113  1  0  0  0  0
101113  1  0  0  0  0
 75114  1  0  0  0  0
 86114  1  0  0  0  0
 73115  1  0  0  0  0
 83115  1  0  0  0  0
 76116  1  0  0  0  0
109116  1  0  0  0  0
115116  1  0  0  0  0
 65117  1  0  0  0  0
110117  1  0  0  0  0
 74118  1  0  0  0  0
110118  1  0  0  0  0
 84119  1  0  0  0  0
 93120  1  0  0  0  0
106120  1  0  0  0  0
 94121  1  0  0  0  0
108121  1  0  0  0  0
 96122  1  0  0  0  0
109122  1  0  0  0  0
114122  1  0  0  0  0
 66123  1  0  0  0  0
 67123  1  0  0  0  0
 90123  1  0  0  0  0
 66124  1  0  0  0  0
 97124  1  0  0  0  0
119124  1  0  0  0  0
 68125  1  0  0  0  0
 79125  1  0  0  0  0
 81126  1  0  0  0  0
 89126  1  0  0  0  0
120126  1  0  0  0  0
 68127  1  0  0  0  0
 77127  1  0  0  0  0
112127  1  0  0  0  0
 70128  1  0  0  0  0
 93128  1  0  0  0  0
 72129  1  0  0  0  0
 77129  1  0  0  0  0
125129  1  0  0  0  0
 74130  1  0  0  0  0
 98130  1  0  0  0  0
121130  1  0  0  0  0
 69131  1  0  0  0  0
 82131  1  0  0  0  0
 88132  1  0  0  0  0
 93132  1  0  0  0  0
131132  1  0  0  0  0
 70133  1  0  0  0  0
 96133  1  0  0  0  0
128133  1  0  0  0  0
 65134  1  0  0  0  0
 82134  1  0  0  0  0
119134  1  0  0  0  0
 67135  1  0  0  0  0
 97135  1  0  0  0  0
100135  1  0  0  0  0
 95136  1  0  0  0  0
117136  1  0  0  0  0
118136  1  0  0  0  0
M  END
