 xtb: 6.7.1pre (5071a88)
          08312618253D

127109  0     0  0            999 V2000
   -0.1308   -0.0516   -1.7787 O   0  0  0  0  0  0  0  0  0  0  0  0
    0.4057    0.1675   -0.6948 C   0  0  0  0  0  0  0  0  0  0  0  0
   -0.4327    0.7436    0.3697 C   0  0  0  0  0  0  0  0  0  0  0  0
   -1.5795    0.0502    0.7768 C   0  0  0  0  0  0  0  0  0  0  0  0
   -2.4248    0.5940    1.7574 C   0  0  0  0  0  0  0  0  0  0  0  0
   -3.6516   -0.1491    2.2412 C   0  0  0  0  0  0  0  0  0  0  0  0
   -4.4424   -0.8383    1.1372 C   0  0  0  0  0  0  0  0  0  0  0  0
   -4.3238   -2.1311    1.0470 N   0  0  0  0  0  0  0  0  0  0  0  0
   -5.0133   -2.7767    0.0695 N   0  0  0  0  0  0  0  0  0  0  0  0
   -5.8449   -2.1955   -0.8559 C   0  0  0  0  0  0  0  0  0  0  0  0
   -6.4426   -2.8485   -1.7039 O   0  0  0  0  0  0  0  0  0  0  0  0
   -5.9868   -0.7332   -0.7704 C   0  0  0  0  0  0  0  0  0  0  0  0
   -6.8108   -0.0537   -1.6761 C   0  0  0  0  0  0  0  0  0  0  0  0
   -6.9416    1.3311   -1.5884 C   0  0  0  0  0  0  0  0  0  0  0  0
   -6.2525    2.0320   -0.5997 C   0  0  0  0  0  0  0  0  0  0  0  0
   -5.4307    1.3521    0.3050 C   0  0  0  0  0  0  0  0  0  0  0  0
   -5.2950   -0.0388    0.2202 C   0  0  0  0  0  0  0  0  0  0  0  0
   -2.0848    1.8293    2.3343 C   0  0  0  0  0  0  0  0  0  0  0  0
   -0.9498    2.5256    1.9109 C   0  0  0  0  0  0  0  0  0  0  0  0
   -0.1344    1.9845    0.9226 C   0  0  0  0  0  0  0  0  0  0  0  0
    0.9387    2.6805    0.5212 F   0  0  0  0  0  0  0  0  0  0  0  0
    1.7377   -0.1274   -0.4282 N   0  0  0  0  0  0  0  0  0  0  0  0
    2.5637   -0.6415   -1.5224 C   0  0  0  0  0  0  0  0  0  0  0  0
    4.0579   -0.3651   -1.3152 C   0  0  0  0  0  0  0  0  0  0  0  0
    4.5494   -0.8306   -0.0137 N   0  0  0  0  0  0  0  0  0  0  0  0
    5.8808   -1.0901    0.2688 C   0  0  0  0  0  0  0  0  0  0  0  0
    6.2716   -1.5416    1.3393 O   0  0  0  0  0  0  0  0  0  0  0  0
    6.8706   -0.8069   -0.8072 C   0  0  0  0  0  0  0  0  0  0  0  0
    8.2134   -0.2063   -0.4507 C   0  0  0  0  0  0  0  0  0  0  0  0
    7.2062    0.6158   -1.1944 C   0  0  0  0  0  0  0  0  0  0  0  0
    3.5507   -1.0465    1.0338 C   0  0  0  0  0  0  0  0  0  0  0  0
    2.3532   -0.0954    0.9070 C   0  0  0  0  0  0  0  0  0  0  0  0
   -1.8024   -0.9139    0.3199 H   0  0  0  0  0  0  0  0  0  0  0  0
   -4.3282    0.5233    2.7820 H   0  0  0  0  0  0  0  0  0  0  0  0
   -3.3252   -0.9035    2.9686 H   0  0  0  0  0  0  0  0  0  0  0  0
   -4.9004   -3.7848    0.0220 H   0  0  0  0  0  0  0  0  0  0  0  0
   -7.3464   -0.6020   -2.4488 H   0  0  0  0  0  0  0  0  0  0  0  0
   -7.5779    1.8623   -2.2927 H   0  0  0  0  0  0  0  0  0  0  0  0
   -6.3526    3.1137   -0.5357 H   0  0  0  0  0  0  0  0  0  0  0  0
   -4.9085    1.9356    1.0559 H   0  0  0  0  0  0  0  0  0  0  0  0
   -2.7067    2.2632    3.1158 H   0  0  0  0  0  0  0  0  0  0  0  0
   -0.6978    3.4889    2.3446 H   0  0  0  0  0  0  0  0  0  0  0  0
    2.3861   -1.7229   -1.5692 H   0  0  0  0  0  0  0  0  0  0  0  0
    2.2333   -0.2115   -2.4743 H   0  0  0  0  0  0  0  0  0  0  0  0
    4.2397    0.7155   -1.3501 H   0  0  0  0  0  0  0  0  0  0  0  0
    4.6360   -0.8311   -2.1190 H   0  0  0  0  0  0  0  0  0  0  0  0
    6.8956   -1.5650   -1.5835 H   0  0  0  0  0  0  0  0  0  0  0  0
    8.4051    0.0350    0.5896 H   0  0  0  0  0  0  0  0  0  0  0  0
    9.0839   -0.5638   -0.9879 H   0  0  0  0  0  0  0  0  0  0  0  0
    7.3939    0.8250   -2.2409 H   0  0  0  0  0  0  0  0  0  0  0  0
    6.7278    1.4268   -0.6565 H   0  0  0  0  0  0  0  0  0  0  0  0
    3.2142   -2.0858    0.9363 H   0  0  0  0  0  0  0  0  0  0  0  0
    4.0080   -0.9390    2.0231 H   0  0  0  0  0  0  0  0  0  0  0  0
    1.6060   -0.3387    1.6686 H   0  0  0  0  0  0  0  0  0  0  0  0
    2.6899    0.9343    1.0731 H   0  0  0  0  0  0  0  0  0  0  0  0
    2.1012    0.0000    3.3450 B   0  0  0  0  0  0  0  0  0  0  0  0
   -2.1012    0.0000    3.3450 B   0  0  0  0  0  0  0  0  0  0  0  0
    0.0000    2.1012    3.3450 B   0  0  0  0  0  0  0  0  0  0  0  0
    0.0000   -2.1012    3.3450 B   0  0  0  0  0  0  0  0  0  0  0  0
    3.3450    2.1012    0.0000 B   0  0  0  0  0  0  0  0  0  0  0  0
    3.3450   -2.1012    0.0000 B   0  0  0  0  0  0  0  0  0  0  0  0
    3.3450    0.0000    2.1012 B   0  0  0  0  0  0  0  0  0  0  0  0
    3.3450    0.0000   -2.1012 B   0  0  0  0  0  0  0  0  0  0  0  0
   -3.3450    2.1012    0.0000 B   0  0  0  0  0  0  0  0  0  0  0  0
   -3.3450   -2.1012    0.0000 B   0  0  0  0  0  0  0  0  0  0  0  0
   -3.3450    0.0000    2.1012 B   0  0  0  0  0  0  0  0  0  0  0  0
   -3.3450    0.0000   -2.1012 B   0  0  0  0  0  0  0  0  0  0  0  0
    2.1012    0.0000   -3.3450 B   0  0  0  0  0  0  0  0  0  0  0  0
   -2.1012    0.0000   -3.3450 B   0  0  0  0  0  0  0  0  0  0  0  0
    0.0000    2.1012   -3.3450 B   0  0  0  0  0  0  0  0  0  0  0  0
    0.0000   -2.1012   -3.3450 B   0  0  0  0  0  0  0  0  0  0  0  0
    0.0000    3.3450    2.1012 B   0  0  0  0  0  0  0  0  0  0  0  0
    0.0000    3.3450   -2.1012 B   0  0  0  0  0  0  0  0  0  0  0  0
    0.0000   -3.3450    2.1012 B   0  0  0  0  0  0  0  0  0  0  0  0
    0.0000   -3.3450   -2.1012 B   0  0  0  0  0  0  0  0  0  0  0  0
    2.1012    3.3450    0.0000 B   0  0  0  0  0  0  0  0  0  0  0  0
   -2.1012    3.3450    0.0000 B   0  0  0  0  0  0  0  0  0  0  0  0
    2.1012   -3.3450    0.0000 B   0  0  0  0  0  0  0  0  0  0  0  0
   -2.1012   -3.3450    0.0000 B   0  0  0  0  0  0  0  0  0  0  0  0
    1.4800    1.4800    3.5800 B   0  0  0  0  0  0  0  0  0  0  0  0
   -1.4800    1.4800    3.5800 B   0  0  0  0  0  0  0  0  0  0  0  0
    1.4800   -1.4800    3.5800 B   0  0  0  0  0  0  0  0  0  0  0  0
   -1.4800   -1.4800    3.5800 B   0  0  0  0  0  0  0  0  0  0  0  0
    3.5800    1.4800    1.4800 B   0  0  0  0  0  0  0  0  0  0  0  0
    3.5800   -1.4800    1.4800 B   0  0  0  0  0  0  0  0  0  0  0  0
    3.5800    1.4800   -1.4800 B   0  0  0  0  0  0  0  0  0  0  0  0
    3.5800   -1.4800   -1.4800 B   0  0  0  0  0  0  0  0  0  0  0  0
   -3.5800    1.4800    1.4800 B   0  0  0  0  0  0  0  0  0  0  0  0
   -3.5800   -1.4800    1.4800 B   0  0  0  0  0  0  0  0  0  0  0  0
   -3.5800    1.4800   -1.4800 B   0  0  0  0  0  0  0  0  0  0  0  0
   -3.5800   -1.4800   -1.4800 B   0  0  0  0  0  0  0  0  0  0  0  0
    2.1012    0.0000    3.9200 N   0  0  0  0  0  0  0  0  0  0  0  0
   -2.1012    0.0000    3.9200 N   0  0  0  0  0  0  0  0  0  0  0  0
    0.0000    2.1012    3.9200 N   0  0  0  0  0  0  0  0  0  0  0  0
    0.0000   -2.1012    3.9200 N   0  0  0  0  0  0  0  0  0  0  0  0
    3.9200    2.1012    0.0000 N   0  0  0  0  0  0  0  0  0  0  0  0
    3.9200   -2.1012    0.0000 N   0  0  0  0  0  0  0  0  0  0  0  0
    3.9200    0.0000    2.1012 N   0  0  0  0  0  0  0  0  0  0  0  0
    3.9200    0.0000   -2.1012 N   0  0  0  0  0  0  0  0  0  0  0  0
   -3.9200    2.1012    0.0000 N   0  0  0  0  0  0  0  0  0  0  0  0
   -3.9200   -2.1012    0.0000 N   0  0  0  0  0  0  0  0  0  0  0  0
   -3.9200    0.0000    2.1012 N   0  0  0  0  0  0  0  0  0  0  0  0
   -3.9200    0.0000   -2.1012 N   0  0  0  0  0  0  0  0  0  0  0  0
    2.1012    0.0000   -3.9200 N   0  0  0  0  0  0  0  0  0  0  0  0
   -2.1012    0.0000   -3.9200 N   0  0  0  0  0  0  0  0  0  0  0  0
    0.0000    2.1012   -3.9200 N   0  0  0  0  0  0  0  0  0  0  0  0
    0.0000   -2.1012   -3.9200 N   0  0  0  0  0  0  0  0  0  0  0  0
    0.0000    3.9200    2.1012 N   0  0  0  0  0  0  0  0  0  0  0  0
    0.0000    3.9200   -2.1012 N   0  0  0  0  0  0  0  0  0  0  0  0
    0.0000   -3.9200    2.1012 N   0  0  0  0  0  0  0  0  0  0  0  0
    0.0000   -3.9200   -2.1012 N   0  0  0  0  0  0  0  0  0  0  0  0
    2.1012    3.9200    0.0000 N   0  0  0  0  0  0  0  0  0  0  0  0
   -2.1012    3.9200    0.0000 N   0  0  0  0  0  0  0  0  0  0  0  0
    2.1012   -3.9200    0.0000 N   0  0  0  0  0  0  0  0  0  0  0  0
   -2.1012   -3.9200    0.0000 N   0  0  0  0  0  0  0  0  0  0  0  0
    1.4800    1.4800    4.2200 N   0  0  0  0  0  0  0  0  0  0  0  0
   -1.4800    1.4800    4.2200 N   0  0  0  0  0  0  0  0  0  0  0  0
    1.4800   -1.4800    4.2200 N   0  0  0  0  0  0  0  0  0  0  0  0
   -1.4800   -1.4800    4.2200 N   0  0  0  0  0  0  0  0  0  0  0  0
    4.2200    1.4800    1.4800 N   0  0  0  0  0  0  0  0  0  0  0  0
    4.2200   -1.4800    1.4800 N   0  0  0  0  0  0  0  0  0  0  0  0
    4.2200    1.4800   -1.4800 N   0  0  0  0  0  0  0  0  0  0  0  0
    4.2200   -1.4800   -1.4800 N   0  0  0  0  0  0  0  0  0  0  0  0
   -4.2200    1.4800    1.4800 N   0  0  0  0  0  0  0  0  0  0  0  0
   -4.2200   -1.4800    1.4800 N   0  0  0  0  0  0  0  0  0  0  0  0
   -4.2200    1.4800   -1.4800 N   0  0  0  0  0  0  0  0  0  0  0  0
   -4.2200   -1.4800   -1.4800 N   0  0  0  0  0  0  0  0  0  0  0  0
  1  2  4  0  0  0  0
  2  3  1  0  0  0  0
  3  4  4  0  0  0  0
  4  5  1  0  0  0  0
  7  8  1  0  0  0  0
  8  9  1  0  0  0  0
  9 10  1  0  0  0  0
 10 11  4  0  0  0  0
 10 12  1  0  0  0  0
 12 13  4  0  0  0  0
 13 14  4  0  0  0  0
 14 15  4  0  0  0  0
 15 16  4  0  0  0  0
  7 17  1  0  0  0  0
 12 17  1  0  0  0  0
 16 17  1  0  0  0  0
  5 18  1  0  0  0  0
 18 19  1  0  0  0  0
  3 20  4  0  0  0  0
 19 20  1  0  0  0  0
 20 21  1  0  0  0  0
  2 22  1  0  0  0  0
 22 23  1  0  0  0  0
 24 25  1  0  0  0  0
 25 26  1  0  0  0  0
 26 27  4  0  0  0  0
 26 28  1  0  0  0  0
 28 29  1  0  0  0  0
 28 30  1  0  0  0  0
 29 30  1  0  0  0  0
 25 31  1  0  0  0  0
 22 32  1  0  0  0  0
 31 32  1  0  0  0  0
  4 33  1  0  0  0  0
  9 36  1  0  0  0  0
 13 37  1  0  0  0  0
 14 38  1  0  0  0  0
 15 39  1  0  0  0  0
 16 40  1  0  0  0  0
 18 41  1  0  0  0  0
 23 43  1  0  0  0  0
 23 44  1  0  0  0  0
 28 47  1  0  0  0  0
 29 48  1  0  0  0  0
 29 49  1  0  0  0  0
 30 50  1  0  0  0  0
 30 51  1  0  0  0  0
 32 54  1  0  0  0  0
 32 55  1  0  0  0  0
 23 63  1  0  0  0  0
  5 66  1  0  0  0  0
  6 66  1  0  0  0  0
 19 72  1  0  0  0  0
 18 81  1  0  0  0  0
 31 85  1  0  0  0  0
 23 87  1  0  0  0  0
 43 87  1  0  0  0  0
  5 88  1  0  0  0  0
  7 89  1  0  0  0  0
  8 89  1  0  0  0  0
 56 92  3  0  0  0  0
 57 93  3  0  0  0  0
 58 94  3  0  0  0  0
 59 95  3  0  0  0  0
 60 96  3  0  0  0  0
 25 97  1  0  0  0  0
 61 97  3  0  0  0  0
 62 98  3  0  0  0  0
 24 99  1  0  0  0  0
 63 99  2  0  0  0  0
 64100  3  0  0  0  0
  8101  1  0  0  0  0
  9101  1  0  0  0  0
 65101  2  0  0  0  0
  6102  3  0  0  0  0
 66102  1  0  0  0  0
 67103  3  0  0  0  0
 68104  3  0  0  0  0
 69105  3  0  0  0  0
 70106  3  0  0  0  0
 71107  3  0  0  0  0
 42108  1  0  0  0  0
 72108  3  0  0  0  0
 73109  3  0  0  0  0
 74110  3  0  0  0  0
 75111  3  0  0  0  0
 76112  3  0  0  0  0
 77113  3  0  0  0  0
 78114  3  0  0  0  0
 79115  3  0  0  0  0
 80116  3  0  0  0  0
 81117  3  0  0  0  0
 82118  3  0  0  0  0
 83119  3  0  0  0  0
 84120  3  0  0  0  0
 31121  1  0  0  0  0
 85121  2  0  0  0  0
 45122  1  0  0  0  0
 86122  3  0  0  0  0
 24123  1  0  0  0  0
 46123  1  0  0  0  0
 87123  2  0  0  0  0
 40124  1  0  0  0  0
 88124  3  0  0  0  0
  7125  4  0  0  0  0
  8125  4  0  0  0  0
 89125  1  0  0  0  0
 90126  3  0  0  0  0
 91127  3  0  0  0  0
M  END
