 xtb: 6.7.1pre (5071a88)
          08312621133D

127167  0     0  0            999 V2000
   -0.1308   -0.0516    9.1351 O   0  0  0  0  0  0  0  0  0  0  0  0
    0.4057    0.1675   10.2190 C   0  0  0  0  0  0  0  0  0  0  0  0
   -0.4327    0.7436   11.2834 C   0  0  0  0  0  0  0  0  0  0  0  0
   -1.5795    0.0502   11.6905 C   0  0  0  0  0  0  0  0  0  0  0  0
   -2.4248    0.5940   12.6712 C   0  0  0  0  0  0  0  0  0  0  0  0
   -3.6516   -0.1491   13.1550 C   0  0  0  0  0  0  0  0  0  0  0  0
   -4.4424   -0.8383   12.0509 C   0  0  0  0  0  0  0  0  0  0  0  0
   -4.3238   -2.1311   11.9608 N   0  0  0  0  0  0  0  0  0  0  0  0
   -5.0133   -2.7767   10.9832 N   0  0  0  0  0  0  0  0  0  0  0  0
   -5.8449   -2.1955   10.0578 C   0  0  0  0  0  0  0  0  0  0  0  0
   -6.4426   -2.8485    9.2099 O   0  0  0  0  0  0  0  0  0  0  0  0
   -5.9868   -0.7332   10.1433 C   0  0  0  0  0  0  0  0  0  0  0  0
   -6.8108   -0.0537    9.2377 C   0  0  0  0  0  0  0  0  0  0  0  0
   -6.9416    1.3311    9.3253 C   0  0  0  0  0  0  0  0  0  0  0  0
   -6.2525    2.0320   10.3141 C   0  0  0  0  0  0  0  0  0  0  0  0
   -5.4307    1.3521   11.2187 C   0  0  0  0  0  0  0  0  0  0  0  0
   -5.2950   -0.0388   11.1339 C   0  0  0  0  0  0  0  0  0  0  0  0
   -2.0848    1.8293   13.2481 C   0  0  0  0  0  0  0  0  0  0  0  0
   -0.9498    2.5256   12.8247 C   0  0  0  0  0  0  0  0  0  0  0  0
   -0.1344    1.9845   11.8363 C   0  0  0  0  0  0  0  0  0  0  0  0
    0.9387    2.6805   11.4349 F   0  0  0  0  0  0  0  0  0  0  0  0
    1.7377   -0.1274   10.4856 N   0  0  0  0  0  0  0  0  0  0  0  0
    2.5637   -0.6415    9.3913 C   0  0  0  0  0  0  0  0  0  0  0  0
    4.0579   -0.3651    9.5985 C   0  0  0  0  0  0  0  0  0  0  0  0
    4.5494   -0.8306   10.9001 N   0  0  0  0  0  0  0  0  0  0  0  0
    5.8808   -1.0901   11.1825 C   0  0  0  0  0  0  0  0  0  0  0  0
    6.2716   -1.5416   12.2530 O   0  0  0  0  0  0  0  0  0  0  0  0
    6.8706   -0.8069   10.1065 C   0  0  0  0  0  0  0  0  0  0  0  0
    8.2134   -0.2063   10.4631 C   0  0  0  0  0  0  0  0  0  0  0  0
    7.2062    0.6158    9.7193 C   0  0  0  0  0  0  0  0  0  0  0  0
    3.5507   -1.0465   11.9475 C   0  0  0  0  0  0  0  0  0  0  0  0
    2.3532   -0.0954   11.8207 C   0  0  0  0  0  0  0  0  0  0  0  0
   -1.8024   -0.9139   11.2337 H   0  0  0  0  0  0  0  0  0  0  0  0
   -4.3282    0.5233   13.6957 H   0  0  0  0  0  0  0  0  0  0  0  0
   -3.3252   -0.9035   13.8823 H   0  0  0  0  0  0  0  0  0  0  0  0
   -4.9004   -3.7848   10.9357 H   0  0  0  0  0  0  0  0  0  0  0  0
   -7.3464   -0.6020    8.4650 H   0  0  0  0  0  0  0  0  0  0  0  0
   -7.5779    1.8623    8.6210 H   0  0  0  0  0  0  0  0  0  0  0  0
   -6.3526    3.1137   10.3781 H   0  0  0  0  0  0  0  0  0  0  0  0
   -4.9085    1.9356   11.9697 H   0  0  0  0  0  0  0  0  0  0  0  0
   -2.7067    2.2632   14.0295 H   0  0  0  0  0  0  0  0  0  0  0  0
   -0.6978    3.4889   13.2584 H   0  0  0  0  0  0  0  0  0  0  0  0
    2.3861   -1.7229    9.3445 H   0  0  0  0  0  0  0  0  0  0  0  0
    2.2333   -0.2115    8.4395 H   0  0  0  0  0  0  0  0  0  0  0  0
    4.2397    0.7155    9.5636 H   0  0  0  0  0  0  0  0  0  0  0  0
    4.6360   -0.8311    8.7947 H   0  0  0  0  0  0  0  0  0  0  0  0
    6.8956   -1.5650    9.3303 H   0  0  0  0  0  0  0  0  0  0  0  0
    8.4051    0.0350   11.5034 H   0  0  0  0  0  0  0  0  0  0  0  0
    9.0839   -0.5638    9.9259 H   0  0  0  0  0  0  0  0  0  0  0  0
    7.3939    0.8250    8.6728 H   0  0  0  0  0  0  0  0  0  0  0  0
    6.7278    1.4268   10.2572 H   0  0  0  0  0  0  0  0  0  0  0  0
    3.2142   -2.0858   11.8500 H   0  0  0  0  0  0  0  0  0  0  0  0
    4.0080   -0.9390   12.9369 H   0  0  0  0  0  0  0  0  0  0  0  0
    1.6060   -0.3387   12.5823 H   0  0  0  0  0  0  0  0  0  0  0  0
    2.6899    0.9343   11.9869 H   0  0  0  0  0  0  0  0  0  0  0  0
    3.4592   -1.4546    1.6280 B   0  0  0  0  0  0  0  0  0  0  0  0
    3.4564    1.1299    0.9400 N   0  0  0  0  0  0  0  0  0  0  0  0
    2.5399    2.3625   -1.2610 B   0  0  0  0  0  0  0  0  0  0  0  0
    2.2931   -0.6416   -2.7306 N   0  0  0  0  0  0  0  0  0  0  0  0
    0.6905   -3.5611    2.7027 B   0  0  0  0  0  0  0  0  0  0  0  0
   -2.9397   -2.6548    1.7095 N   0  0  0  0  0  0  0  0  0  0  0  0
   -1.0382    4.0851    1.8312 B   0  0  0  0  0  0  0  0  0  0  0  0
   -0.6193    0.0177   -3.9419 N   0  0  0  0  0  0  0  0  0  0  0  0
   -0.4737    1.4453   -4.0917 B   0  0  0  0  0  0  0  0  0  0  0  0
    1.2096   -3.7868   -1.7394 N   0  0  0  0  0  0  0  0  0  0  0  0
   -3.8445    2.2094   -0.4937 B   0  0  0  0  0  0  0  0  0  0  0  0
   -2.7729    2.7636   -1.2118 N   0  0  0  0  0  0  0  0  0  0  0  0
    1.4057    0.8181   -4.8893 B   0  0  0  0  0  0  0  0  0  0  0  0
   -0.2358    3.3642    2.8335 N   0  0  0  0  0  0  0  0  0  0  0  0
    0.8983   -2.8798   -2.8138 B   0  0  0  0  0  0  0  0  0  0  0  0
   -0.4918    3.7666   -1.0101 N   0  0  0  0  0  0  0  0  0  0  0  0
   -0.8060    2.1823    3.2819 B   0  0  0  0  0  0  0  0  0  0  0  0
    1.6561   -1.2744    3.5036 N   0  0  0  0  0  0  0  0  0  0  0  0
   -0.2485    3.4699   -2.3799 B   0  0  0  0  0  0  0  0  0  0  0  0
    1.3087    0.0689    3.8170 N   0  0  0  0  0  0  0  0  0  0  0  0
   -1.5974   -0.5599   -3.0847 B   0  0  0  0  0  0  0  0  0  0  0  0
   -3.8325    1.7768    0.8316 N   0  0  0  0  0  0  0  0  0  0  0  0
    0.3376    4.4960    1.1839 B   0  0  0  0  0  0  0  0  0  0  0  0
    0.0433   -0.0140    4.4567 N   0  0  0  0  0  0  0  0  0  0  0  0
   -2.7088    2.2268    1.6012 B   0  0  0  0  0  0  0  0  0  0  0  0
    3.7727   -0.1326   -0.7655 N   0  0  0  0  0  0  0  0  0  0  0  0
   -2.2534   -3.6394    1.0085 B   0  0  0  0  0  0  0  0  0  0  0  0
    1.0558    3.7334    2.2357 N   0  0  0  0  0  0  0  0  0  0  0  0
   -1.8256   -0.7775    3.2198 B   0  0  0  0  0  0  0  0  0  0  0  0
   -2.4368   -3.6019   -0.4508 N   0  0  0  0  0  0  0  0  0  0  0  0
    3.0187   -1.0737   -1.5028 B   0  0  0  0  0  0  0  0  0  0  0  0
   -3.1580   -1.2526   -0.3843 N   0  0  0  0  0  0  0  0  0  0  0  0
    2.0347    2.9223    1.5617 B   0  0  0  0  0  0  0  0  0  0  0  0
   -0.5074   -2.9001   -2.4328 N   0  0  0  0  0  0  0  0  0  0  0  0
   -1.6735   -2.1129   -2.4916 B   0  0  0  0  0  0  0  0  0  0  0  0
    0.5901    3.9646   -0.1102 N   0  0  0  0  0  0  0  0  0  0  0  0
    1.0903    2.9596   -3.1825 B   0  0  0  0  0  0  0  0  0  0  0  0
    0.0774   -4.3592    1.7213 N   0  0  0  0  0  0  0  0  0  0  0  0
   -1.7840    3.4524   -0.4082 B   0  0  0  0  0  0  0  0  0  0  0  0
   -2.0135    3.4185    1.0316 N   0  0  0  0  0  0  0  0  0  0  0  0
    1.4659   -4.2121    1.4991 B   0  0  0  0  0  0  0  0  0  0  0  0
   -0.7980    1.0642    4.1946 N   0  0  0  0  0  0  0  0  0  0  0  0
   -2.6662   -2.4021   -1.1753 B   0  0  0  0  0  0  0  0  0  0  0  0
   -1.0744   -4.4843    0.9912 N   0  0  0  0  0  0  0  0  0  0  0  0
   -2.5037    0.4914   -2.1091 B   0  0  0  0  0  0  0  0  0  0  0  0
    2.3527   -3.8873    0.4531 N   0  0  0  0  0  0  0  0  0  0  0  0
    3.9123   -0.2024    0.7259 B   0  0  0  0  0  0  0  0  0  0  0  0
    1.9285    1.9570   -2.4651 N   0  0  0  0  0  0  0  0  0  0  0  0
    1.0012    2.2544   -4.6225 B   0  0  0  0  0  0  0  0  0  0  0  0
   -4.1860    0.8290   -0.3475 N   0  0  0  0  0  0  0  0  0  0  0  0
   -1.3389    2.4537   -3.1149 B   0  0  0  0  0  0  0  0  0  0  0  0
   -2.3596    1.9326   -2.3058 N   0  0  0  0  0  0  0  0  0  0  0  0
    3.0731   -2.6455    0.6011 B   0  0  0  0  0  0  0  0  0  0  0  0
    2.3352   -3.6737   -0.9709 N   0  0  0  0  0  0  0  0  0  0  0  0
    2.2179    0.5458    2.8084 B   0  0  0  0  0  0  0  0  0  0  0  0
   -2.0264    0.6119    3.6015 N   0  0  0  0  0  0  0  0  0  0  0  0
   -1.1017   -4.1838   -0.4410 B   0  0  0  0  0  0  0  0  0  0  0  0
   -3.2181    0.0417   -0.9586 N   0  0  0  0  0  0  0  0  0  0  0  0
    3.4478    1.2586   -0.5141 B   0  0  0  0  0  0  0  0  0  0  0  0
    2.5821    1.6330    1.9365 N   0  0  0  0  0  0  0  0  0  0  0  0
    1.4721   -1.5550   -3.5156 B   0  0  0  0  0  0  0  0  0  0  0  0
   -2.1026    1.7542    2.7608 N   0  0  0  0  0  0  0  0  0  0  0  0
    2.0408    0.7119   -3.2115 B   0  0  0  0  0  0  0  0  0  0  0  0
   -2.7209   -1.3417    2.3206 N   0  0  0  0  0  0  0  0  0  0  0  0
    0.6586   -0.5389   -4.4869 B   0  0  0  0  0  0  0  0  0  0  0  0
   -0.1687   -3.7594   -1.3565 N   0  0  0  0  0  0  0  0  0  0  0  0
    0.4856   -2.1056    3.4338 B   0  0  0  0  0  0  0  0  0  0  0  0
   -0.5873   -1.2050    3.8245 N   0  0  0  0  0  0  0  0  0  0  0  0
   -3.2244   -1.4514    1.0003 B   0  0  0  0  0  0  0  0  0  0  0  0
    2.6713   -0.8555    2.6211 N   0  0  0  0  0  0  0  0  0  0  0  0
    1.8786    3.3393   -0.1064 B   0  0  0  0  0  0  0  0  0  0  0  0
    2.8769   -2.3318   -0.7936 N   0  0  0  0  0  0  0  0  0  0  0  0
  1  2  2  0  0  0  0
  2  3  1  0  0  0  0
  3  4  4  0  0  0  0
  4  5  4  0  0  0  0
  5  6  1  0  0  0  0
  6  7  1  0  0  0  0
  7  8  2  0  0  0  0
  8  9  1  0  0  0  0
  9 10  1  0  0  0  0
 10 11  2  0  0  0  0
 10 12  1  0  0  0  0
 12 13  4  0  0  0  0
 13 14  4  0  0  0  0
 14 15  4  0  0  0  0
 15 16  4  0  0  0  0
  7 17  1  0  0  0  0
 12 17  4  0  0  0  0
 16 17  4  0  0  0  0
  5 18  4  0  0  0  0
 18 19  4  0  0  0  0
  3 20  4  0  0  0  0
 19 20  4  0  0  0  0
 20 21  1  0  0  0  0
  2 22  4  0  0  0  0
 22 23  1  0  0  0  0
 23 24  1  0  0  0  0
 24 25  1  0  0  0  0
 25 26  4  0  0  0  0
 26 27  2  0  0  0  0
 26 28  1  0  0  0  0
 28 29  1  0  0  0  0
 28 30  1  0  0  0  0
 29 30  1  0  0  0  0
 25 31  1  0  0  0  0
 22 32  1  0  0  0  0
 31 32  1  0  0  0  0
  4 33  1  0  0  0  0
  6 34  1  0  0  0  0
  6 35  1  0  0  0  0
  9 36  1  0  0  0  0
 13 37  1  0  0  0  0
 14 38  1  0  0  0  0
 15 39  1  0  0  0  0
 16 40  1  0  0  0  0
 18 41  1  0  0  0  0
 19 42  1  0  0  0  0
 23 43  1  0  0  0  0
 23 44  1  0  0  0  0
 24 45  1  0  0  0  0
 24 46  1  0  0  0  0
 28 47  1  0  0  0  0
 29 48  1  0  0  0  0
 29 49  1  0  0  0  0
 30 50  1  0  0  0  0
 30 51  1  0  0  0  0
 31 52  1  0  0  0  0
 31 53  1  0  0  0  0
 32 54  1  0  0  0  0
 32 55  1  0  0  0  0
 63 64  1  0  0  0  0
 66 67  1  0  0  0  0
 62 69  1  0  0  0  0
 65 70  1  0  0  0  0
 69 72  1  0  0  0  0
 71 74  1  0  0  0  0
 73 75  1  0  0  0  0
 63 76  1  0  0  0  0
 66 77  1  0  0  0  0
 62 78  1  0  0  0  0
 75 79  1  0  0  0  0
 77 80  1  0  0  0  0
 61 82  1  0  0  0  0
 69 83  1  0  0  0  0
 78 83  1  0  0  0  0
 82 85  1  0  0  0  0
 59 86  1  0  0  0  0
 81 86  1  0  0  0  0
 83 88  1  0  0  0  0
 70 89  1  0  0  0  0
 76 90  1  0  0  0  0
 89 90  1  0  0  0  0
 71 91  1  0  0  0  0
 78 91  1  0  0  0  0
 74 92  1  0  0  0  0
 60 93  1  0  0  0  0
 67 94  1  0  0  0  0
 71 94  1  0  0  0  0
 62 95  1  0  0  0  0
 80 95  1  0  0  0  0
 94 95  1  0  0  0  0
 60 96  1  0  0  0  0
 93 96  1  0  0  0  0
 72 97  1  0  0  0  0
 79 97  1  0  0  0  0
 85 98  1  0  0  0  0
 87 98  1  0  0  0  0
 90 98  1  0  0  0  0
 82 99  1  0  0  0  0
 93 99  1  0  0  0  0
 76100  1  0  0  0  0
 96101  1  0  0  0  0
 56102  1  0  0  0  0
 57102  1  0  0  0  0
 81102  1  0  0  0  0
 58103  1  0  0  0  0
 92103  1  0  0  0  0
 64104  1  0  0  0  0
 68104  1  0  0  0  0
 92104  1  0  0  0  0
 66105  1  0  0  0  0
 77105  1  0  0  0  0
 64106  1  0  0  0  0
 74106  1  0  0  0  0
 67107  1  0  0  0  0
100107  1  0  0  0  0
106107  1  0  0  0  0
 56108  1  0  0  0  0
101108  1  0  0  0  0
 65109  1  0  0  0  0
101109  1  0  0  0  0
 75110  1  0  0  0  0
 84111  1  0  0  0  0
 97111  1  0  0  0  0
 85112  1  0  0  0  0
 99112  1  0  0  0  0
 87113  1  0  0  0  0
100113  1  0  0  0  0
105113  1  0  0  0  0
 57114  1  0  0  0  0
 58114  1  0  0  0  0
 81114  1  0  0  0  0
 57115  1  0  0  0  0
 88115  1  0  0  0  0
110115  1  0  0  0  0
 59116  1  0  0  0  0
 70116  1  0  0  0  0
 72117  1  0  0  0  0
 80117  1  0  0  0  0
111117  1  0  0  0  0
 59118  1  0  0  0  0
 68118  1  0  0  0  0
103118  1  0  0  0  0
 61119  1  0  0  0  0
 84119  1  0  0  0  0
 63120  1  0  0  0  0
 68120  1  0  0  0  0
116120  1  0  0  0  0
 65121  1  0  0  0  0
 89121  1  0  0  0  0
112121  1  0  0  0  0
 60122  1  0  0  0  0
 73122  1  0  0  0  0
 79123  1  0  0  0  0
 84123  1  0  0  0  0
122123  1  0  0  0  0
 61124  1  0  0  0  0
 87124  1  0  0  0  0
119124  1  0  0  0  0
 56125  1  0  0  0  0
 73125  1  0  0  0  0
110125  1  0  0  0  0
 58126  1  0  0  0  0
 88126  1  0  0  0  0
 91126  1  0  0  0  0
 86127  1  0  0  0  0
108127  1  0  0  0  0
109127  1  0  0  0  0
M  END
