 xtb: 6.7.1pre (5071a88)
          08312622223D

127167  0     0  0            999 V2000
   -0.2110    0.2911    8.2861 O   0  0  0  0  0  0  0  0  0  0  0  0
    0.0464   -0.2694    9.3323 C   0  0  0  0  0  0  0  0  0  0  0  0
    0.6544    0.4905   10.4744 C   0  0  0  0  0  0  0  0  0  0  0  0
   -0.0254    1.5889   10.9796 C   0  0  0  0  0  0  0  0  0  0  0  0
    0.5282    2.3887   11.9704 C   0  0  0  0  0  0  0  0  0  0  0  0
   -0.2491    3.5732   12.4837 C   0  0  0  0  0  0  0  0  0  0  0  0
   -0.8373    4.3620   11.3474 C   0  0  0  0  0  0  0  0  0  0  0  0
   -2.1223    4.3272   11.2386 N   0  0  0  0  0  0  0  0  0  0  0  0
   -2.7196    4.9828   10.2435 N   0  0  0  0  0  0  0  0  0  0  0  0
   -2.1170    5.7406    9.2599 C   0  0  0  0  0  0  0  0  0  0  0  0
   -2.7888    6.3103    8.4239 O   0  0  0  0  0  0  0  0  0  0  0  0
   -0.6553    5.7667    9.3621 C   0  0  0  0  0  0  0  0  0  0  0  0
    0.0888    6.4758    8.4175 C   0  0  0  0  0  0  0  0  0  0  0  0
    1.4612    6.5097    8.5062 C   0  0  0  0  0  0  0  0  0  0  0  0
    2.1075    5.8320    9.5392 C   0  0  0  0  0  0  0  0  0  0  0  0
    1.3881    5.1263   10.4763 C   0  0  0  0  0  0  0  0  0  0  0  0
   -0.0100    5.0800   10.4069 C   0  0  0  0  0  0  0  0  0  0  0  0
    1.7912    2.0802   12.4581 C   0  0  0  0  0  0  0  0  0  0  0  0
    2.4929    0.9937   11.9660 C   0  0  0  0  0  0  0  0  0  0  0  0
    1.9190    0.2162   10.9786 C   0  0  0  0  0  0  0  0  0  0  0  0
    2.6156   -0.8375   10.4999 F   0  0  0  0  0  0  0  0  0  0  0  0
   -0.2088   -1.5777    9.5499 N   0  0  0  0  0  0  0  0  0  0  0  0
   -0.8435   -2.3431    8.4920 C   0  0  0  0  0  0  0  0  0  0  0  0
   -0.5148   -3.8252    8.6076 C   0  0  0  0  0  0  0  0  0  0  0  0
   -0.9076   -4.3369    9.9110 N   0  0  0  0  0  0  0  0  0  0  0  0
   -0.8676   -5.6487   10.2660 C   0  0  0  0  0  0  0  0  0  0  0  0
   -1.0468   -5.9982   11.4159 O   0  0  0  0  0  0  0  0  0  0  0  0
   -0.5887   -6.6201    9.1639 C   0  0  0  0  0  0  0  0  0  0  0  0
   -0.3011   -8.0386    9.5529 C   0  0  0  0  0  0  0  0  0  0  0  0
    0.8103   -7.1716    9.0668 C   0  0  0  0  0  0  0  0  0  0  0  0
   -1.0931   -3.3432   10.9489 C   0  0  0  0  0  0  0  0  0  0  0  0
   -0.0372   -2.2543   10.8186 C   0  0  0  0  0  0  0  0  0  0  0  0
   -1.0029    1.8192   10.5850 H   0  0  0  0  0  0  0  0  0  0  0  0
    0.3909    4.2102   13.0971 H   0  0  0  0  0  0  0  0  0  0  0  0
   -1.0806    3.2236   13.1001 H   0  0  0  0  0  0  0  0  0  0  0  0
   -3.7314    4.9030   10.2294 H   0  0  0  0  0  0  0  0  0  0  0  0
   -0.4446    6.9842    7.6285 H   0  0  0  0  0  0  0  0  0  0  0  0
    2.0404    7.0577    7.7784 H   0  0  0  0  0  0  0  0  0  0  0  0
    3.1853    5.8601    9.6031 H   0  0  0  0  0  0  0  0  0  0  0  0
    1.9029    4.5989   11.2634 H   0  0  0  0  0  0  0  0  0  0  0  0
    2.2360    2.6932   13.2281 H   0  0  0  0  0  0  0  0  0  0  0  0
    3.4766    0.7466   12.3323 H   0  0  0  0  0  0  0  0  0  0  0  0
   -1.9304   -2.2001    8.5325 H   0  0  0  0  0  0  0  0  0  0  0  0
   -0.4925   -1.9460    7.5365 H   0  0  0  0  0  0  0  0  0  0  0  0
    0.5595   -3.9842    8.4515 H   0  0  0  0  0  0  0  0  0  0  0  0
   -1.0536   -4.3526    7.8171 H   0  0  0  0  0  0  0  0  0  0  0  0
   -1.1198   -6.4420    8.2411 H   0  0  0  0  0  0  0  0  0  0  0  0
   -0.3403   -8.2574   10.6074 H   0  0  0  0  0  0  0  0  0  0  0  0
   -0.6635   -8.8289    8.9156 H   0  0  0  0  0  0  0  0  0  0  0  0
    1.2174   -7.3455    8.0832 H   0  0  0  0  0  0  0  0  0  0  0  0
    1.5331   -6.8246    9.7873 H   0  0  0  0  0  0  0  0  0  0  0  0
   -2.0944   -2.9030   10.8802 H   0  0  0  0  0  0  0  0  0  0  0  0
   -1.0054   -3.8588   11.9078 H   0  0  0  0  0  0  0  0  0  0  0  0
   -0.1395   -1.5370   11.6370 H   0  0  0  0  0  0  0  0  0  0  0  0
    0.9611   -2.7071   10.8772 H   0  0  0  0  0  0  0  0  0  0  0  0
    3.4566   -1.4801    1.6564 B   0  0  0  0  0  0  0  0  0  0  0  0
    3.4520    1.1107    0.9953 N   0  0  0  0  0  0  0  0  0  0  0  0
    2.5366    2.3659   -1.1933 B   0  0  0  0  0  0  0  0  0  0  0  0
    2.2923   -0.6229   -2.6943 N   0  0  0  0  0  0  0  0  0  0  0  0
    0.6876   -3.6002    2.7091 B   0  0  0  0  0  0  0  0  0  0  0  0
   -2.9436   -2.6876    1.7237 N   0  0  0  0  0  0  0  0  0  0  0  0
   -1.0447    4.0570    1.9182 B   0  0  0  0  0  0  0  0  0  0  0  0
   -0.6200    0.0469   -3.9007 N   0  0  0  0  0  0  0  0  0  0  0  0
   -0.4740    1.4763   -4.0346 B   0  0  0  0  0  0  0  0  0  0  0  0
    1.2106   -3.7806   -1.7363 N   0  0  0  0  0  0  0  0  0  0  0  0
   -3.8464    2.2025   -0.4301 B   0  0  0  0  0  0  0  0  0  0  0  0
   -2.7749    2.7644   -1.1423 N   0  0  0  0  0  0  0  0  0  0  0  0
    1.4049    0.8586   -4.8382 B   0  0  0  0  0  0  0  0  0  0  0  0
   -0.2419    3.3262    2.9116 N   0  0  0  0  0  0  0  0  0  0  0  0
    0.8992   -2.8608   -2.8006 B   0  0  0  0  0  0  0  0  0  0  0  0
   -0.4947    3.7667   -0.9296 N   0  0  0  0  0  0  0  0  0  0  0  0
   -0.8116    2.1404    3.3532 B   0  0  0  0  0  0  0  0  0  0  0  0
    1.6491   -1.3211    3.5284 N   0  0  0  0  0  0  0  0  0  0  0  0
   -0.2505    3.4842   -2.3019 B   0  0  0  0  0  0  0  0  0  0  0  0
    1.2999    0.0173    3.8544 N   0  0  0  0  0  0  0  0  0  0  0  0
   -1.5973   -0.5395   -3.0487 B   0  0  0  0  0  0  0  0  0  0  0  0
   -3.8349    1.7557    0.8902 N   0  0  0  0  0  0  0  0  0  0  0  0
    0.3312    4.4720    1.2730 B   0  0  0  0  0  0  0  0  0  0  0  0
    0.0380   -0.0713    4.4983 N   0  0  0  0  0  0  0  0  0  0  0  0
   -2.7129    2.2001    1.6670 B   0  0  0  0  0  0  0  0  0  0  0  0
    3.7709   -0.1336   -0.7233 N   0  0  0  0  0  0  0  0  0  0  0  0
   -2.2546   -3.6619    1.0110 B   0  0  0  0  0  0  0  0  0  0  0  0
    1.0495    3.6994    2.3163 N   0  0  0  0  0  0  0  0  0  0  0  0
   -1.8293   -0.8235    3.2530 B   0  0  0  0  0  0  0  0  0  0  0  0
   -2.4365   -3.6095   -0.4473 N   0  0  0  0  0  0  0  0  0  0  0  0
    3.0174   -1.0668   -1.4705 B   0  0  0  0  0  0  0  0  0  0  0  0
   -3.1571   -1.2611   -0.3555 N   0  0  0  0  0  0  0  0  0  0  0  0
    2.0294    2.8965    1.6356 B   0  0  0  0  0  0  0  0  0  0  0  0
   -0.5063   -2.8856   -2.4201 N   0  0  0  0  0  0  0  0  0  0  0  0
   -1.6729   -2.0984   -2.4718 B   0  0  0  0  0  0  0  0  0  0  0  0
    0.5866    3.9560   -0.0272 N   0  0  0  0  0  0  0  0  0  0  0  0
    1.0886    2.9830   -3.1100 B   0  0  0  0  0  0  0  0  0  0  0  0
    0.0755   -4.3892    1.7194 N   0  0  0  0  0  0  0  0  0  0  0  0
   -1.7871    3.4458   -0.3300 B   0  0  0  0  0  0  0  0  0  0  0  0
   -2.0177    3.3974    1.1083 N   0  0  0  0  0  0  0  0  0  0  0  0
    1.4640   -4.2360    1.4981 B   0  0  0  0  0  0  0  0  0  0  0  0
   -0.8006    1.0063    4.2404 N   0  0  0  0  0  0  0  0  0  0  0  0
   -2.6657   -2.4014   -1.1587 B   0  0  0  0  0  0  0  0  0  0  0  0
   -1.0760   -4.5083    0.9868 N   0  0  0  0  0  0  0  0  0  0  0  0
   -2.5031    0.5014   -2.0617 B   0  0  0  0  0  0  0  0  0  0  0  0
    2.3513   -3.9010    0.4562 N   0  0  0  0  0  0  0  0  0  0  0  0
    3.9096   -0.2185    0.7678 B   0  0  0  0  0  0  0  0  0  0  0  0
    1.9270    1.9731   -2.4026 N   0  0  0  0  0  0  0  0  0  0  0  0
    1.0000    2.2920   -4.5572 B   0  0  0  0  0  0  0  0  0  0  0  0
   -4.1864    0.8200   -0.2967 N   0  0  0  0  0  0  0  0  0  0  0  0
   -1.3397    2.4743   -3.0475 B   0  0  0  0  0  0  0  0  0  0  0  0
   -2.3603    1.9447   -2.2440 N   0  0  0  0  0  0  0  0  0  0  0  0
    3.0714   -2.6600    0.6169 B   0  0  0  0  0  0  0  0  0  0  0  0
    2.3357   -3.6735   -0.9656 N   0  0  0  0  0  0  0  0  0  0  0  0
    2.2134    0.5080    2.8591 B   0  0  0  0  0  0  0  0  0  0  0  0
   -2.0260    0.5606    3.6421 N   0  0  0  0  0  0  0  0  0  0  0  0
   -1.1011   -4.1903   -0.4423 B   0  0  0  0  0  0  0  0  0  0  0  0
   -3.2168    0.0395   -0.9157 N   0  0  0  0  0  0  0  0  0  0  0  0
    3.4444    1.2549   -0.4571 B   0  0  0  0  0  0  0  0  0  0  0  0
    2.5780    1.6034    1.9970 N   0  0  0  0  0  0  0  0  0  0  0  0
    1.4722   -1.5284   -3.4889 B   0  0  0  0  0  0  0  0  0  0  0  0
   -2.1070    1.7147    2.8204 N   0  0  0  0  0  0  0  0  0  0  0  0
    2.0396    0.7359   -3.1615 B   0  0  0  0  0  0  0  0  0  0  0  0
   -2.7256   -1.3808    2.3492 N   0  0  0  0  0  0  0  0  0  0  0  0
    0.6586   -0.5031   -4.4506 B   0  0  0  0  0  0  0  0  0  0  0  0
   -0.1678   -3.7563   -1.3527 N   0  0  0  0  0  0  0  0  0  0  0  0
    0.4805   -2.1532    3.4553 B   0  0  0  0  0  0  0  0  0  0  0  0
   -0.5931   -1.2588    3.8589 N   0  0  0  0  0  0  0  0  0  0  0  0
   -3.2252   -1.4749    1.0269 B   0  0  0  0  0  0  0  0  0  0  0  0
    2.6678   -0.8929    2.6551 N   0  0  0  0  0  0  0  0  0  0  0  0
    1.8746    3.3306   -0.0286 B   0  0  0  0  0  0  0  0  0  0  0  0
    2.8763   -2.3329   -0.7744 N   0  0  0  0  0  0  0  0  0  0  0  0
  1  2  2  0  0  0  0
  2  3  1  0  0  0  0
  3  4  4  0  0  0  0
  4  5  4  0  0  0  0
  5  6  1  0  0  0  0
  6  7  1  0  0  0  0
  7  8  2  0  0  0  0
  8  9  1  0  0  0  0
  9 10  1  0  0  0  0
 10 11  2  0  0  0  0
 10 12  1  0  0  0  0
 12 13  4  0  0  0  0
 13 14  4  0  0  0  0
 14 15  4  0  0  0  0
 15 16  4  0  0  0  0
  7 17  1  0  0  0  0
 12 17  4  0  0  0  0
 16 17  4  0  0  0  0
  5 18  4  0  0  0  0
 18 19  4  0  0  0  0
  3 20  4  0  0  0  0
 19 20  4  0  0  0  0
 20 21  1  0  0  0  0
  2 22  4  0  0  0  0
 22 23  1  0  0  0  0
 23 24  1  0  0  0  0
 24 25  1  0  0  0  0
 25 26  4  0  0  0  0
 26 27  2  0  0  0  0
 26 28  1  0  0  0  0
 28 29  1  0  0  0  0
 28 30  1  0  0  0  0
 29 30  1  0  0  0  0
 25 31  1  0  0  0  0
 22 32  1  0  0  0  0
 31 32  1  0  0  0  0
  4 33  1  0  0  0  0
  6 34  1  0  0  0  0
  6 35  1  0  0  0  0
  9 36  1  0  0  0  0
 13 37  1  0  0  0  0
 14 38  1  0  0  0  0
 15 39  1  0  0  0  0
 16 40  1  0  0  0  0
 18 41  1  0  0  0  0
 19 42  1  0  0  0  0
 23 43  1  0  0  0  0
 23 44  1  0  0  0  0
 24 45  1  0  0  0  0
 24 46  1  0  0  0  0
 28 47  1  0  0  0  0
 29 48  1  0  0  0  0
 29 49  1  0  0  0  0
 30 50  1  0  0  0  0
 30 51  1  0  0  0  0
 31 52  1  0  0  0  0
 31 53  1  0  0  0  0
 32 54  1  0  0  0  0
 32 55  1  0  0  0  0
 63 64  1  0  0  0  0
 66 67  1  0  0  0  0
 62 69  1  0  0  0  0
 65 70  1  0  0  0  0
 69 72  1  0  0  0  0
 71 74  1  0  0  0  0
 73 75  1  0  0  0  0
 63 76  1  0  0  0  0
 66 77  1  0  0  0  0
 62 78  1  0  0  0  0
 75 79  1  0  0  0  0
 77 80  1  0  0  0  0
 61 82  1  0  0  0  0
 69 83  1  0  0  0  0
 78 83  1  0  0  0  0
 82 85  1  0  0  0  0
 59 86  1  0  0  0  0
 81 86  1  0  0  0  0
 83 88  1  0  0  0  0
 70 89  1  0  0  0  0
 76 90  1  0  0  0  0
 89 90  1  0  0  0  0
 71 91  1  0  0  0  0
 78 91  1  0  0  0  0
 74 92  1  0  0  0  0
 60 93  1  0  0  0  0
 67 94  1  0  0  0  0
 71 94  1  0  0  0  0
 62 95  1  0  0  0  0
 80 95  1  0  0  0  0
 94 95  1  0  0  0  0
 60 96  1  0  0  0  0
 93 96  1  0  0  0  0
 72 97  1  0  0  0  0
 79 97  1  0  0  0  0
 85 98  1  0  0  0  0
 87 98  1  0  0  0  0
 90 98  1  0  0  0  0
 82 99  1  0  0  0  0
 93 99  1  0  0  0  0
 76100  1  0  0  0  0
 96101  1  0  0  0  0
 56102  1  0  0  0  0
 57102  1  0  0  0  0
 81102  1  0  0  0  0
 58103  1  0  0  0  0
 92103  1  0  0  0  0
 64104  1  0  0  0  0
 68104  1  0  0  0  0
 92104  1  0  0  0  0
 66105  1  0  0  0  0
 77105  1  0  0  0  0
 64106  1  0  0  0  0
 74106  1  0  0  0  0
 67107  1  0  0  0  0
100107  1  0  0  0  0
106107  1  0  0  0  0
 56108  1  0  0  0  0
101108  1  0  0  0  0
 65109  1  0  0  0  0
101109  1  0  0  0  0
 75110  1  0  0  0  0
 84111  1  0  0  0  0
 97111  1  0  0  0  0
 85112  1  0  0  0  0
 99112  1  0  0  0  0
 87113  1  0  0  0  0
100113  1  0  0  0  0
105113  1  0  0  0  0
 57114  1  0  0  0  0
 58114  1  0  0  0  0
 81114  1  0  0  0  0
 57115  1  0  0  0  0
 88115  1  0  0  0  0
110115  1  0  0  0  0
 59116  1  0  0  0  0
 70116  1  0  0  0  0
 72117  1  0  0  0  0
 80117  1  0  0  0  0
111117  1  0  0  0  0
 59118  1  0  0  0  0
 68118  1  0  0  0  0
103118  1  0  0  0  0
 61119  1  0  0  0  0
 84119  1  0  0  0  0
 63120  1  0  0  0  0
 68120  1  0  0  0  0
116120  1  0  0  0  0
 65121  1  0  0  0  0
 89121  1  0  0  0  0
112121  1  0  0  0  0
 60122  1  0  0  0  0
 73122  1  0  0  0  0
 79123  1  0  0  0  0
 84123  1  0  0  0  0
122123  1  0  0  0  0
 61124  1  0  0  0  0
 87124  1  0  0  0  0
119124  1  0  0  0  0
 56125  1  0  0  0  0
 73125  1  0  0  0  0
110125  1  0  0  0  0
 58126  1  0  0  0  0
 88126  1  0  0  0  0
 91126  1  0  0  0  0
 86127  1  0  0  0  0
108127  1  0  0  0  0
109127  1  0  0  0  0
M  END
