 xtb: 6.7.1pre (5071a88)
          08312618343D

114 96  0     0  0            999 V2000
   -3.5271    2.1677   -1.6369 C   0  0  0  0  0  0  0  0  0  0  0  0
   -3.0176    2.1679   -0.2030 C   0  0  0  0  0  0  0  0  0  0  0  0
   -2.3126    0.8798    0.1484 C   0  0  0  0  0  0  0  0  0  0  0  0
   -0.9336    0.7922    0.0149 C   0  0  0  0  0  0  0  0  0  0  0  0
    0.0795    1.8043   -0.4364 C   0  0  0  0  0  0  0  0  0  0  0  0
    1.3398    1.0627   -0.3486 N   0  0  0  0  0  0  0  0  0  0  0  0
    1.1342   -0.2273    0.0974 C   0  0  0  0  0  0  0  0  0  0  0  0
    2.1324   -1.0993    0.2607 C   0  0  0  0  0  0  0  0  0  0  0  0
    3.4940   -0.6524   -0.0503 C   0  0  0  0  0  0  0  0  0  0  0  0
    3.7229    0.6616   -0.5069 C   0  0  0  0  0  0  0  0  0  0  0  0
    2.5685    1.5934   -0.6708 C   0  0  0  0  0  0  0  0  0  0  0  0
    2.7260    2.7438   -1.0650 O   0  0  0  0  0  0  0  0  0  0  0  0
    5.0171    1.0957   -0.8056 C   0  0  0  0  0  0  0  0  0  0  0  0
    6.0806    0.2154   -0.6474 C   0  0  0  0  0  0  0  0  0  0  0  0
    5.8752   -1.0872   -0.1974 C   0  0  0  0  0  0  0  0  0  0  0  0
    4.5802   -1.5216    0.1016 C   0  0  0  0  0  0  0  0  0  0  0  0
    7.3301    0.6707   -0.9476 O   0  0  0  0  0  0  0  0  0  0  0  0
   -0.2965   -0.4025    0.3270 C   0  0  0  0  0  0  0  0  0  0  0  0
   -0.8876   -1.5223    0.7566 N   0  0  0  0  0  0  0  0  0  0  0  0
   -2.2227   -1.4597    0.8838 C   0  0  0  0  0  0  0  0  0  0  0  0
   -2.9946   -0.2901    0.5921 C   0  0  0  0  0  0  0  0  0  0  0  0
   -4.3971   -0.3591    0.7584 C   0  0  0  0  0  0  0  0  0  0  0  0
   -5.0181   -1.5273    1.1984 C   0  0  0  0  0  0  0  0  0  0  0  0
   -4.2481   -2.6417    1.4772 C   0  0  0  0  0  0  0  0  0  0  0  0
   -2.8671   -2.6071    1.3208 C   0  0  0  0  0  0  0  0  0  0  0  0
   -4.8893   -3.7661    1.9056 O   0  0  0  0  0  0  0  0  0  0  0  0
   -4.0224    3.1177   -1.8614 H   0  0  0  0  0  0  0  0  0  0  0  0
   -2.7054    2.0380   -2.3493 H   0  0  0  0  0  0  0  0  0  0  0  0
   -4.2483    1.3621   -1.8083 H   0  0  0  0  0  0  0  0  0  0  0  0
   -2.3369    3.0167   -0.0651 H   0  0  0  0  0  0  0  0  0  0  0  0
   -3.8410    2.3564    0.4946 H   0  0  0  0  0  0  0  0  0  0  0  0
    0.1298    2.6705    0.2304 H   0  0  0  0  0  0  0  0  0  0  0  0
   -0.0786    2.1195   -1.4723 H   0  0  0  0  0  0  0  0  0  0  0  0
    1.9553   -2.1096    0.6114 H   0  0  0  0  0  0  0  0  0  0  0  0
    5.1946    2.1085   -1.1576 H   0  0  0  0  0  0  0  0  0  0  0  0
    6.7061   -1.7755   -0.0736 H   0  0  0  0  0  0  0  0  0  0  0  0
    4.4293   -2.5401    0.4522 H   0  0  0  0  0  0  0  0  0  0  0  0
    7.9727   -0.0410   -0.7933 H   0  0  0  0  0  0  0  0  0  0  0  0
   -5.0316    0.4966    0.5444 H   0  0  0  0  0  0  0  0  0  0  0  0
   -6.0971   -1.5639    1.3212 H   0  0  0  0  0  0  0  0  0  0  0  0
   -2.2649   -3.4844    1.5381 H   0  0  0  0  0  0  0  0  0  0  0  0
   -4.2300   -4.4630    2.0616 H   0  0  0  0  0  0  0  0  0  0  0  0
    2.1012    0.0000    3.3450 B   0  0  0  0  0  0  0  0  0  0  0  0
   -2.1012    0.0000    3.3450 B   0  0  0  0  0  0  0  0  0  0  0  0
    0.0000    2.1012    3.3450 B   0  0  0  0  0  0  0  0  0  0  0  0
    0.0000   -2.1012    3.3450 B   0  0  0  0  0  0  0  0  0  0  0  0
    3.3450    2.1012    0.0000 B   0  0  0  0  0  0  0  0  0  0  0  0
    3.3450   -2.1012    0.0000 B   0  0  0  0  0  0  0  0  0  0  0  0
    3.3450    0.0000    2.1012 B   0  0  0  0  0  0  0  0  0  0  0  0
    3.3450    0.0000   -2.1012 B   0  0  0  0  0  0  0  0  0  0  0  0
   -3.3450    2.1012    0.0000 B   0  0  0  0  0  0  0  0  0  0  0  0
   -3.3450   -2.1012    0.0000 B   0  0  0  0  0  0  0  0  0  0  0  0
   -3.3450    0.0000    2.1012 B   0  0  0  0  0  0  0  0  0  0  0  0
   -3.3450    0.0000   -2.1012 B   0  0  0  0  0  0  0  0  0  0  0  0
    2.1012    0.0000   -3.3450 B   0  0  0  0  0  0  0  0  0  0  0  0
   -2.1012    0.0000   -3.3450 B   0  0  0  0  0  0  0  0  0  0  0  0
    0.0000    2.1012   -3.3450 B   0  0  0  0  0  0  0  0  0  0  0  0
    0.0000   -2.1012   -3.3450 B   0  0  0  0  0  0  0  0  0  0  0  0
    0.0000    3.3450    2.1012 B   0  0  0  0  0  0  0  0  0  0  0  0
    0.0000    3.3450   -2.1012 B   0  0  0  0  0  0  0  0  0  0  0  0
    0.0000   -3.3450    2.1012 B   0  0  0  0  0  0  0  0  0  0  0  0
    0.0000   -3.3450   -2.1012 B   0  0  0  0  0  0  0  0  0  0  0  0
    2.1012    3.3450    0.0000 B   0  0  0  0  0  0  0  0  0  0  0  0
   -2.1012    3.3450    0.0000 B   0  0  0  0  0  0  0  0  0  0  0  0
    2.1012   -3.3450    0.0000 B   0  0  0  0  0  0  0  0  0  0  0  0
   -2.1012   -3.3450    0.0000 B   0  0  0  0  0  0  0  0  0  0  0  0
    1.4800    1.4800    3.5800 B   0  0  0  0  0  0  0  0  0  0  0  0
   -1.4800    1.4800    3.5800 B   0  0  0  0  0  0  0  0  0  0  0  0
    1.4800   -1.4800    3.5800 B   0  0  0  0  0  0  0  0  0  0  0  0
   -1.4800   -1.4800    3.5800 B   0  0  0  0  0  0  0  0  0  0  0  0
    3.5800    1.4800    1.4800 B   0  0  0  0  0  0  0  0  0  0  0  0
    3.5800   -1.4800    1.4800 B   0  0  0  0  0  0  0  0  0  0  0  0
    3.5800    1.4800   -1.4800 B   0  0  0  0  0  0  0  0  0  0  0  0
    3.5800   -1.4800   -1.4800 B   0  0  0  0  0  0  0  0  0  0  0  0
   -3.5800    1.4800    1.4800 B   0  0  0  0  0  0  0  0  0  0  0  0
   -3.5800   -1.4800    1.4800 B   0  0  0  0  0  0  0  0  0  0  0  0
   -3.5800    1.4800   -1.4800 B   0  0  0  0  0  0  0  0  0  0  0  0
   -3.5800   -1.4800   -1.4800 B   0  0  0  0  0  0  0  0  0  0  0  0
    2.1012    0.0000    3.9200 N   0  0  0  0  0  0  0  0  0  0  0  0
   -2.1012    0.0000    3.9200 N   0  0  0  0  0  0  0  0  0  0  0  0
    0.0000    2.1012    3.9200 N   0  0  0  0  0  0  0  0  0  0  0  0
    0.0000   -2.1012    3.9200 N   0  0  0  0  0  0  0  0  0  0  0  0
    3.9200    2.1012    0.0000 N   0  0  0  0  0  0  0  0  0  0  0  0
    3.9200   -2.1012    0.0000 N   0  0  0  0  0  0  0  0  0  0  0  0
    3.9200    0.0000    2.1012 N   0  0  0  0  0  0  0  0  0  0  0  0
    3.9200    0.0000   -2.1012 N   0  0  0  0  0  0  0  0  0  0  0  0
   -3.9200    2.1012    0.0000 N   0  0  0  0  0  0  0  0  0  0  0  0
   -3.9200   -2.1012    0.0000 N   0  0  0  0  0  0  0  0  0  0  0  0
   -3.9200    0.0000    2.1012 N   0  0  0  0  0  0  0  0  0  0  0  0
   -3.9200    0.0000   -2.1012 N   0  0  0  0  0  0  0  0  0  0  0  0
    2.1012    0.0000   -3.9200 N   0  0  0  0  0  0  0  0  0  0  0  0
   -2.1012    0.0000   -3.9200 N   0  0  0  0  0  0  0  0  0  0  0  0
    0.0000    2.1012   -3.9200 N   0  0  0  0  0  0  0  0  0  0  0  0
    0.0000   -2.1012   -3.9200 N   0  0  0  0  0  0  0  0  0  0  0  0
    0.0000    3.9200    2.1012 N   0  0  0  0  0  0  0  0  0  0  0  0
    0.0000    3.9200   -2.1012 N   0  0  0  0  0  0  0  0  0  0  0  0
    0.0000   -3.9200    2.1012 N   0  0  0  0  0  0  0  0  0  0  0  0
    0.0000   -3.9200   -2.1012 N   0  0  0  0  0  0  0  0  0  0  0  0
    2.1012    3.9200    0.0000 N   0  0  0  0  0  0  0  0  0  0  0  0
   -2.1012    3.9200    0.0000 N   0  0  0  0  0  0  0  0  0  0  0  0
    2.1012   -3.9200    0.0000 N   0  0  0  0  0  0  0  0  0  0  0  0
   -2.1012   -3.9200    0.0000 N   0  0  0  0  0  0  0  0  0  0  0  0
    1.4800    1.4800    4.2200 N   0  0  0  0  0  0  0  0  0  0  0  0
   -1.4800    1.4800    4.2200 N   0  0  0  0  0  0  0  0  0  0  0  0
    1.4800   -1.4800    4.2200 N   0  0  0  0  0  0  0  0  0  0  0  0
   -1.4800   -1.4800    4.2200 N   0  0  0  0  0  0  0  0  0  0  0  0
    4.2200    1.4800    1.4800 N   0  0  0  0  0  0  0  0  0  0  0  0
    4.2200   -1.4800    1.4800 N   0  0  0  0  0  0  0  0  0  0  0  0
    4.2200    1.4800   -1.4800 N   0  0  0  0  0  0  0  0  0  0  0  0
    4.2200   -1.4800   -1.4800 N   0  0  0  0  0  0  0  0  0  0  0  0
   -4.2200    1.4800    1.4800 N   0  0  0  0  0  0  0  0  0  0  0  0
   -4.2200   -1.4800    1.4800 N   0  0  0  0  0  0  0  0  0  0  0  0
   -4.2200    1.4800   -1.4800 N   0  0  0  0  0  0  0  0  0  0  0  0
   -4.2200   -1.4800   -1.4800 N   0  0  0  0  0  0  0  0  0  0  0  0
  2  3  1  0  0  0  0
  3  4  1  0  0  0  0
  4  5  1  0  0  0  0
  5  6  1  0  0  0  0
  6  7  1  0  0  0  0
  7  8  1  0  0  0  0
  8  9  1  0  0  0  0
  9 10  4  0  0  0  0
  6 11  1  0  0  0  0
 10 11  1  0  0  0  0
 11 12  1  0  0  0  0
 10 13  1  0  0  0  0
 13 14  1  0  0  0  0
 14 15  4  0  0  0  0
  9 16  1  0  0  0  0
 15 16  1  0  0  0  0
 14 17  1  0  0  0  0
  4 18  1  0  0  0  0
  7 18  4  0  0  0  0
 18 19  4  0  0  0  0
 19 20  1  0  0  0  0
  3 21  1  0  0  0  0
 20 21  1  0  0  0  0
 21 22  1  0  0  0  0
 22 23  1  0  0  0  0
 23 24  1  0  0  0  0
 20 25  1  0  0  0  0
 24 25  1  0  0  0  0
 24 26  1  0  0  0  0
  1 27  1  0  0  0  0
  1 28  1  0  0  0  0
  5 32  1  0  0  0  0
  5 33  1  0  0  0  0
  8 34  1  0  0  0  0
 13 35  1  0  0  0  0
 15 36  1  0  0  0  0
 17 38  1  0  0  0  0
 22 39  1  0  0  0  0
 23 40  1  0  0  0  0
 25 41  1  0  0  0  0
 26 42  1  0  0  0  0
 11 47  1  0  0  0  0
  8 48  1  0  0  0  0
  2 51  2  0  0  0  0
 11 73  1  0  0  0  0
 20 76  1  0  0  0  0
 25 76  1  0  0  0  0
  1 77  1  0  0  0  0
 43 79  3  0  0  0  0
 44 80  3  0  0  0  0
 45 81  3  0  0  0  0
 46 82  3  0  0  0  0
 47 83  2  0  0  0  0
 16 84  1  0  0  0  0
 37 84  1  0  0  0  0
 48 84  2  0  0  0  0
 49 85  3  0  0  0  0
 50 86  3  0  0  0  0
  2 87  1  0  0  0  0
 31 87  1  0  0  0  0
 51 87  2  0  0  0  0
 52 88  3  0  0  0  0
 22 89  1  0  0  0  0
 53 89  3  0  0  0  0
 54 90  3  0  0  0  0
 55 91  3  0  0  0  0
 56 92  3  0  0  0  0
 57 93  3  0  0  0  0
 58 94  3  0  0  0  0
 59 95  3  0  0  0  0
 60 96  3  0  0  0  0
 61 97  3  0  0  0  0
 62 98  3  0  0  0  0
 63 99  3  0  0  0  0
 64100  3  0  0  0  0
 65101  3  0  0  0  0
 66102  3  0  0  0  0
 67103  3  0  0  0  0
 68104  3  0  0  0  0
 69105  3  0  0  0  0
 70106  3  0  0  0  0
 71107  3  0  0  0  0
 16108  1  0  0  0  0
 72108  3  0  0  0  0
 10109  1  0  0  0  0
 13109  1  0  0  0  0
 73109  2  0  0  0  0
 74110  3  0  0  0  0
 75111  3  0  0  0  0
 23112  1  0  0  0  0
 24112  1  0  0  0  0
 76112  2  0  0  0  0
  1113  1  0  0  0  0
 29113  1  0  0  0  0
 77113  2  0  0  0  0
 78114  3  0  0  0  0
M  END
