 xtb: 6.7.1pre (5071a88)
          08312622243D

114154  0     0  0            999 V2000
   -1.0433    3.1931    8.4932 C   0  0  0  0  0  0  0  0  0  0  0  0
    0.3476    2.8132    9.0096 C   0  0  0  0  0  0  0  0  0  0  0  0
    0.2485    2.1967   10.3745 C   0  0  0  0  0  0  0  0  0  0  0  0
    0.2420    0.8371   10.5376 C   0  0  0  0  0  0  0  0  0  0  0  0
    0.3913   -0.2789    9.5525 C   0  0  0  0  0  0  0  0  0  0  0  0
    0.2942   -1.4661   10.3873 N   0  0  0  0  0  0  0  0  0  0  0  0
    0.0994   -1.1620   11.7126 C   0  0  0  0  0  0  0  0  0  0  0  0
   -0.0350   -2.1243   12.6581 C   0  0  0  0  0  0  0  0  0  0  0  0
    0.0321   -3.4868   12.2525 C   0  0  0  0  0  0  0  0  0  0  0  0
    0.2531   -3.7960   10.8922 C   0  0  0  0  0  0  0  0  0  0  0  0
    0.4000   -2.7404    9.8822 C   0  0  0  0  0  0  0  0  0  0  0  0
    0.5957   -2.9273    8.6939 O   0  0  0  0  0  0  0  0  0  0  0  0
    0.3315   -5.1230   10.4794 C   0  0  0  0  0  0  0  0  0  0  0  0
    0.1868   -6.1515   11.3942 C   0  0  0  0  0  0  0  0  0  0  0  0
   -0.0419   -5.8510   12.7425 C   0  0  0  0  0  0  0  0  0  0  0  0
   -0.1151   -4.5453   13.1609 C   0  0  0  0  0  0  0  0  0  0  0  0
    0.2701   -7.4339   10.9533 O   0  0  0  0  0  0  0  0  0  0  0  0
    0.0731    0.2805   11.8341 C   0  0  0  0  0  0  0  0  0  0  0  0
   -0.0830    0.9640   12.9334 N   0  0  0  0  0  0  0  0  0  0  0  0
   -0.0656    2.3085   12.8139 C   0  0  0  0  0  0  0  0  0  0  0  0
    0.1001    2.9765   11.5608 C   0  0  0  0  0  0  0  0  0  0  0  0
    0.1131    4.3847   11.5709 C   0  0  0  0  0  0  0  0  0  0  0  0
   -0.0341    5.0918   12.7326 C   0  0  0  0  0  0  0  0  0  0  0  0
   -0.2092    4.4279   13.9605 C   0  0  0  0  0  0  0  0  0  0  0  0
   -0.2221    3.0546   13.9930 C   0  0  0  0  0  0  0  0  0  0  0  0
   -0.3627    5.1155   15.1216 O   0  0  0  0  0  0  0  0  0  0  0  0
   -1.6870    2.3171    8.4679 H   0  0  0  0  0  0  0  0  0  0  0  0
   -0.9717    3.5943    7.4856 H   0  0  0  0  0  0  0  0  0  0  0  0
   -1.5054    3.9371    9.1389 H   0  0  0  0  0  0  0  0  0  0  0  0
    0.7953    2.0965    8.3204 H   0  0  0  0  0  0  0  0  0  0  0  0
    0.9851    3.6983    9.0358 H   0  0  0  0  0  0  0  0  0  0  0  0
   -0.3913   -0.2956    8.7865 H   0  0  0  0  0  0  0  0  0  0  0  0
    1.3561   -0.2675    9.0326 H   0  0  0  0  0  0  0  0  0  0  0  0
   -0.1889   -1.8496   13.6875 H   0  0  0  0  0  0  0  0  0  0  0  0
    0.5042   -5.3433    9.4377 H   0  0  0  0  0  0  0  0  0  0  0  0
   -0.1610   -6.6583   13.4544 H   0  0  0  0  0  0  0  0  0  0  0  0
   -0.2904   -4.3169   14.2021 H   0  0  0  0  0  0  0  0  0  0  0  0
    0.1501   -8.0447   11.6908 H   0  0  0  0  0  0  0  0  0  0  0  0
    0.2473    4.9233   10.6460 H   0  0  0  0  0  0  0  0  0  0  0  0
   -0.0154    6.1742   12.7172 H   0  0  0  0  0  0  0  0  0  0  0  0
   -0.3496    2.5317   14.9258 H   0  0  0  0  0  0  0  0  0  0  0  0
   -0.3316    6.0654   14.9537 H   0  0  0  0  0  0  0  0  0  0  0  0
    3.4598   -1.4159    1.7350 B   0  0  0  0  0  0  0  0  0  0  0  0
    3.4693    1.1577    0.9983 N   0  0  0  0  0  0  0  0  0  0  0  0
    2.5397    2.3419   -1.2261 B   0  0  0  0  0  0  0  0  0  0  0  0
    2.2928   -0.6866   -2.6376 N   0  0  0  0  0  0  0  0  0  0  0  0
    0.6863   -3.4965    2.8582 B   0  0  0  0  0  0  0  0  0  0  0  0
   -2.9392   -2.6025    1.8482 N   0  0  0  0  0  0  0  0  0  0  0  0
   -1.0271    4.1305    1.8350 B   0  0  0  0  0  0  0  0  0  0  0  0
   -0.6225   -0.0460   -3.8583 N   0  0  0  0  0  0  0  0  0  0  0  0
   -0.4750    1.3781   -4.0358 B   0  0  0  0  0  0  0  0  0  0  0  0
    1.2015   -3.8060   -1.5829 N   0  0  0  0  0  0  0  0  0  0  0  0
   -3.8400    2.2171   -0.4492 B   0  0  0  0  0  0  0  0  0  0  0  0
   -2.7687    2.7558   -1.1795 N   0  0  0  0  0  0  0  0  0  0  0  0
    1.4035    0.7321   -4.8241 B   0  0  0  0  0  0  0  0  0  0  0  0
   -0.2256    3.4296    2.8526 N   0  0  0  0  0  0  0  0  0  0  0  0
    0.8908   -2.9224   -2.6753 B   0  0  0  0  0  0  0  0  0  0  0  0
   -0.4853    3.7581   -0.9994 N   0  0  0  0  0  0  0  0  0  0  0  0
   -0.7983    2.2578    3.3242 B   0  0  0  0  0  0  0  0  0  0  0  0
    1.6514   -1.1922    3.5984 N   0  0  0  0  0  0  0  0  0  0  0  0
   -0.2440    3.4349   -2.3639 B   0  0  0  0  0  0  0  0  0  0  0  0
    1.3083    0.1569    3.8860 N   0  0  0  0  0  0  0  0  0  0  0  0
   -1.6007   -0.6059   -2.9889 B   0  0  0  0  0  0  0  0  0  0  0  0
   -3.8270    1.8097    0.8843 N   0  0  0  0  0  0  0  0  0  0  0  0
    0.3482    4.5288    1.1796 B   0  0  0  0  0  0  0  0  0  0  0  0
    0.0496    0.0881    4.5420 N   0  0  0  0  0  0  0  0  0  0  0  0
   -2.7009    2.2711    1.6434 B   0  0  0  0  0  0  0  0  0  0  0  0
    3.7751   -0.1422   -0.6827 N   0  0  0  0  0  0  0  0  0  0  0  0
   -2.2564   -3.6031    1.1660 B   0  0  0  0  0  0  0  0  0  0  0  0
    1.0674    3.7872    2.2465 N   0  0  0  0  0  0  0  0  0  0  0  0
   -1.8222   -0.6990    3.3262 B   0  0  0  0  0  0  0  0  0  0  0  0
   -2.4422   -3.5936   -0.2941 N   0  0  0  0  0  0  0  0  0  0  0  0
    3.0189   -1.0970   -1.4022 B   0  0  0  0  0  0  0  0  0  0  0  0
   -3.1576   -1.2419   -0.2725 N   0  0  0  0  0  0  0  0  0  0  0  0
    2.0441    2.9607    1.5839 B   0  0  0  0  0  0  0  0  0  0  0  0
   -0.5154   -2.9354   -2.2939 N   0  0  0  0  0  0  0  0  0  0  0  0
   -1.6800   -2.1473   -2.3663 B   0  0  0  0  0  0  0  0  0  0  0  0
    0.5976    3.9720   -0.1042 N   0  0  0  0  0  0  0  0  0  0  0  0
    1.0923    2.9072   -3.1597 B   0  0  0  0  0  0  0  0  0  0  0  0
    0.0731   -4.3122    1.8909 N   0  0  0  0  0  0  0  0  0  0  0  0
   -1.7770    3.4569   -0.3905 B   0  0  0  0  0  0  0  0  0  0  0  0
   -2.0045    3.4506    1.0502 N   0  0  0  0  0  0  0  0  0  0  0  0
    1.4606   -4.1709    1.6658 B   0  0  0  0  0  0  0  0  0  0  0  0
   -0.7947    1.1621    4.2665 N   0  0  0  0  0  0  0  0  0  0  0  0
   -2.6700   -2.4081   -1.0417 B   0  0  0  0  0  0  0  0  0  0  0  0
   -1.0789   -4.4491    1.1629 N   0  0  0  0  0  0  0  0  0  0  0  0
   -2.5045    0.4660   -2.0334 B   0  0  0  0  0  0  0  0  0  0  0  0
    2.3458   -3.8667    0.6112 N   0  0  0  0  0  0  0  0  0  0  0  0
    3.9168   -0.1823    0.8094 B   0  0  0  0  0  0  0  0  0  0  0  0
    1.9286    1.9170   -2.4233 N   0  0  0  0  0  0  0  0  0  0  0  0
    1.0005    2.1740   -4.5855 B   0  0  0  0  0  0  0  0  0  0  0  0
   -4.1837    0.8405   -0.2764 N   0  0  0  0  0  0  0  0  0  0  0  0
   -1.3374    2.4067   -3.0779 B   0  0  0  0  0  0  0  0  0  0  0  0
   -2.3585    1.9032   -2.2583 N   0  0  0  0  0  0  0  0  0  0  0  0
    3.0708   -2.6261    0.7322 B   0  0  0  0  0  0  0  0  0  0  0  0
    2.3290   -3.6844   -0.8178 N   0  0  0  0  0  0  0  0  0  0  0  0
    2.2248    0.6109    2.8758 B   0  0  0  0  0  0  0  0  0  0  0  0
   -2.0246    0.6994    3.6808 N   0  0  0  0  0  0  0  0  0  0  0  0
   -1.1078   -4.1773   -0.2743 B   0  0  0  0  0  0  0  0  0  0  0  0
   -3.2176    0.0401   -0.8731 N   0  0  0  0  0  0  0  0  0  0  0  0
    3.4484    1.2525   -0.4586 B   0  0  0  0  0  0  0  0  0  0  0  0
    2.5936    1.6815    1.9842 N   0  0  0  0  0  0  0  0  0  0  0  0
    1.4674   -1.6130   -3.4031 B   0  0  0  0  0  0  0  0  0  0  0  0
   -2.0957    1.8226    2.8134 N   0  0  0  0  0  0  0  0  0  0  0  0
    2.0402    0.6570   -3.1451 B   0  0  0  0  0  0  0  0  0  0  0  0
   -2.7151   -1.2780    2.4335 N   0  0  0  0  0  0  0  0  0  0  0  0
    0.6544   -0.6150   -4.3936 B   0  0  0  0  0  0  0  0  0  0  0  0
   -0.1762   -3.7732   -1.2009 N   0  0  0  0  0  0  0  0  0  0  0  0
    0.4849   -2.0271    3.5638 B   0  0  0  0  0  0  0  0  0  0  0  0
   -0.5854   -1.1137    3.9405 N   0  0  0  0  0  0  0  0  0  0  0  0
   -3.2208   -1.4127    1.1165 B   0  0  0  0  0  0  0  0  0  0  0  0
    2.6714   -0.7957    2.7146 N   0  0  0  0  0  0  0  0  0  0  0  0
    1.8848    3.3441   -0.0904 B   0  0  0  0  0  0  0  0  0  0  0  0
    2.8765   -2.3409   -0.6697 N   0  0  0  0  0  0  0  0  0  0  0  0
  1  2  1  0  0  0  0
  2  3  1  0  0  0  0
  3  4  2  0  0  0  0
  4  5  1  0  0  0  0
  5  6  1  0  0  0  0
  6  7  1  0  0  0  0
  7  8  2  0  0  0  0
  8  9  4  0  0  0  0
  9 10  4  0  0  0  0
  6 11  1  0  0  0  0
 10 11  1  0  0  0  0
 11 12  2  0  0  0  0
 10 13  4  0  0  0  0
 13 14  4  0  0  0  0
 14 15  4  0  0  0  0
  9 16  4  0  0  0  0
 15 16  2  0  0  0  0
 14 17  1  0  0  0  0
  4 18  4  0  0  0  0
  7 18  1  0  0  0  0
 18 19  4  0  0  0  0
 19 20  4  0  0  0  0
  3 21  4  0  0  0  0
 20 21  4  0  0  0  0
 21 22  4  0  0  0  0
 22 23  2  0  0  0  0
 23 24  4  0  0  0  0
 20 25  4  0  0  0  0
 24 25  4  0  0  0  0
 24 26  1  0  0  0  0
  1 27  1  0  0  0  0
  1 28  1  0  0  0  0
  1 29  1  0  0  0  0
  2 30  1  0  0  0  0
  2 31  1  0  0  0  0
  5 32  1  0  0  0  0
  5 33  1  0  0  0  0
  8 34  1  0  0  0  0
 13 35  1  0  0  0  0
 15 36  1  0  0  0  0
 16 37  1  0  0  0  0
 17 38  1  0  0  0  0
 22 39  1  0  0  0  0
 23 40  1  0  0  0  0
 25 41  1  0  0  0  0
 26 42  1  0  0  0  0
 50 51  1  0  0  0  0
 53 54  1  0  0  0  0
 49 56  1  0  0  0  0
 52 57  1  0  0  0  0
 56 59  1  0  0  0  0
 58 61  1  0  0  0  0
 60 62  1  0  0  0  0
 50 63  1  0  0  0  0
 53 64  1  0  0  0  0
 49 65  1  0  0  0  0
 62 66  1  0  0  0  0
 64 67  1  0  0  0  0
 48 69  1  0  0  0  0
 56 70  1  0  0  0  0
 65 70  1  0  0  0  0
 69 72  1  0  0  0  0
 46 73  1  0  0  0  0
 68 73  1  0  0  0  0
 70 75  1  0  0  0  0
 57 76  1  0  0  0  0
 63 77  1  0  0  0  0
 76 77  1  0  0  0  0
 58 78  1  0  0  0  0
 65 78  1  0  0  0  0
 61 79  1  0  0  0  0
 47 80  1  0  0  0  0
 54 81  1  0  0  0  0
 58 81  1  0  0  0  0
 49 82  1  0  0  0  0
 67 82  1  0  0  0  0
 81 82  1  0  0  0  0
 47 83  1  0  0  0  0
 80 83  1  0  0  0  0
 59 84  1  0  0  0  0
 66 84  1  0  0  0  0
 72 85  1  0  0  0  0
 74 85  1  0  0  0  0
 77 85  1  0  0  0  0
 69 86  1  0  0  0  0
 80 86  1  0  0  0  0
 63 87  1  0  0  0  0
 83 88  1  0  0  0  0
 43 89  1  0  0  0  0
 44 89  1  0  0  0  0
 68 89  1  0  0  0  0
 45 90  1  0  0  0  0
 79 90  1  0  0  0  0
 51 91  1  0  0  0  0
 55 91  1  0  0  0  0
 79 91  1  0  0  0  0
 53 92  1  0  0  0  0
 64 92  1  0  0  0  0
 51 93  1  0  0  0  0
 61 93  1  0  0  0  0
 54 94  1  0  0  0  0
 87 94  1  0  0  0  0
 93 94  1  0  0  0  0
 43 95  1  0  0  0  0
 88 95  1  0  0  0  0
 52 96  1  0  0  0  0
 88 96  1  0  0  0  0
 62 97  1  0  0  0  0
 71 98  1  0  0  0  0
 84 98  1  0  0  0  0
 72 99  1  0  0  0  0
 86 99  1  0  0  0  0
 74100  1  0  0  0  0
 87100  1  0  0  0  0
 92100  1  0  0  0  0
 44101  1  0  0  0  0
 45101  1  0  0  0  0
 68101  1  0  0  0  0
 44102  1  0  0  0  0
 75102  1  0  0  0  0
 97102  1  0  0  0  0
 46103  1  0  0  0  0
 57103  1  0  0  0  0
 59104  1  0  0  0  0
 67104  1  0  0  0  0
 98104  1  0  0  0  0
 46105  1  0  0  0  0
 55105  1  0  0  0  0
 90105  1  0  0  0  0
 48106  1  0  0  0  0
 71106  1  0  0  0  0
 50107  1  0  0  0  0
 55107  1  0  0  0  0
103107  1  0  0  0  0
 52108  1  0  0  0  0
 76108  1  0  0  0  0
 99108  1  0  0  0  0
 47109  1  0  0  0  0
 60109  1  0  0  0  0
 66110  1  0  0  0  0
 71110  1  0  0  0  0
109110  1  0  0  0  0
 48111  1  0  0  0  0
 74111  1  0  0  0  0
106111  1  0  0  0  0
 43112  1  0  0  0  0
 60112  1  0  0  0  0
 97112  1  0  0  0  0
 45113  1  0  0  0  0
 75113  1  0  0  0  0
 78113  1  0  0  0  0
 73114  1  0  0  0  0
 95114  1  0  0  0  0
 96114  1  0  0  0  0
M  END
