 xtb: 6.7.1pre (5071a88)
          08312621133D

114154  0     0  0            999 V2000
   -3.2272   -1.0427    9.4269 C   0  0  0  0  0  0  0  0  0  0  0  0
   -2.9190    0.3191   10.0320 C   0  0  0  0  0  0  0  0  0  0  0  0
   -2.2732    0.2024   11.3918 C   0  0  0  0  0  0  0  0  0  0  0  0
   -0.8891    0.2178   11.4979 C   0  0  0  0  0  0  0  0  0  0  0  0
    0.1794    0.3459   10.4508 C   0  0  0  0  0  0  0  0  0  0  0  0
    1.4137    0.2813   11.2370 N   0  0  0  0  0  0  0  0  0  0  0  0
    1.1450    0.1363   12.5832 C   0  0  0  0  0  0  0  0  0  0  0  0
    2.1083    0.0546   13.5044 C   0  0  0  0  0  0  0  0  0  0  0  0
    3.5011    0.1237   13.0509 C   0  0  0  0  0  0  0  0  0  0  0  0
    3.7948    0.2718   11.6801 C   0  0  0  0  0  0  0  0  0  0  0  0
    2.6768    0.3578   10.6948 C   0  0  0  0  0  0  0  0  0  0  0  0
    2.8904    0.4871    9.4942 O   0  0  0  0  0  0  0  0  0  0  0  0
    5.1192    0.3385   11.2394 C   0  0  0  0  0  0  0  0  0  0  0  0
    6.1479    0.2569   12.1701 C   0  0  0  0  0  0  0  0  0  0  0  0
    5.8783    0.1103   13.5292 C   0  0  0  0  0  0  0  0  0  0  0  0
    4.5531    0.0437   13.9702 C   0  0  0  0  0  0  0  0  0  0  0  0
    7.4284    0.3252   11.7069 O   0  0  0  0  0  0  0  0  0  0  0  0
   -0.3040    0.0951   12.7519 C   0  0  0  0  0  0  0  0  0  0  0  0
   -0.9514   -0.0436   13.9127 N   0  0  0  0  0  0  0  0  0  0  0  0
   -2.2918   -0.0696   13.8307 C   0  0  0  0  0  0  0  0  0  0  0  0
   -3.0131    0.0446   12.6000 C   0  0  0  0  0  0  0  0  0  0  0  0
   -4.4264   -0.0075   12.6475 C   0  0  0  0  0  0  0  0  0  0  0  0
   -5.1109   -0.1602   13.8538 C   0  0  0  0  0  0  0  0  0  0  0  0
   -4.3872   -0.2638   15.0291 C   0  0  0  0  0  0  0  0  0  0  0  0
   -2.9981   -0.2193   15.0137 C   0  0  0  0  0  0  0  0  0  0  0  0
   -5.0069   -0.4139   16.2343 O   0  0  0  0  0  0  0  0  0  0  0  0
   -2.3159   -1.6386    9.3077 H   0  0  0  0  0  0  0  0  0  0  0  0
   -3.6839   -0.9222    8.4395 H   0  0  0  0  0  0  0  0  0  0  0  0
   -3.9206   -1.6142   10.0523 H   0  0  0  0  0  0  0  0  0  0  0  0
   -2.2609    0.8726    9.3513 H   0  0  0  0  0  0  0  0  0  0  0  0
   -3.8295    0.9254   10.0914 H   0  0  0  0  0  0  0  0  0  0  0  0
    0.1660   -0.4839    9.7375 H   0  0  0  0  0  0  0  0  0  0  0  0
    0.1401    1.3073    9.9297 H   0  0  0  0  0  0  0  0  0  0  0  0
    1.8807   -0.0598   14.5581 H   0  0  0  0  0  0  0  0  0  0  0  0
    5.3466    0.4527   10.1829 H   0  0  0  0  0  0  0  0  0  0  0  0
    6.6819    0.0465   14.2570 H   0  0  0  0  0  0  0  0  0  0  0  0
    4.3517   -0.0708   15.0329 H   0  0  0  0  0  0  0  0  0  0  0  0
    8.0408    0.2561   12.4576 H   0  0  0  0  0  0  0  0  0  0  0  0
   -5.0188    0.0672   11.7392 H   0  0  0  0  0  0  0  0  0  0  0  0
   -6.1958   -0.1960   13.8514 H   0  0  0  0  0  0  0  0  0  0  0  0
   -2.4523   -0.3052   15.9499 H   0  0  0  0  0  0  0  0  0  0  0  0
   -5.9683   -0.4283   16.0967 H   0  0  0  0  0  0  0  0  0  0  0  0
    3.4592   -1.4546    1.6280 B   0  0  0  0  0  0  0  0  0  0  0  0
    3.4564    1.1299    0.9400 N   0  0  0  0  0  0  0  0  0  0  0  0
    2.5399    2.3625   -1.2610 B   0  0  0  0  0  0  0  0  0  0  0  0
    2.2931   -0.6416   -2.7306 N   0  0  0  0  0  0  0  0  0  0  0  0
    0.6905   -3.5611    2.7027 B   0  0  0  0  0  0  0  0  0  0  0  0
   -2.9397   -2.6548    1.7095 N   0  0  0  0  0  0  0  0  0  0  0  0
   -1.0382    4.0851    1.8312 B   0  0  0  0  0  0  0  0  0  0  0  0
   -0.6193    0.0177   -3.9419 N   0  0  0  0  0  0  0  0  0  0  0  0
   -0.4737    1.4453   -4.0917 B   0  0  0  0  0  0  0  0  0  0  0  0
    1.2096   -3.7868   -1.7394 N   0  0  0  0  0  0  0  0  0  0  0  0
   -3.8445    2.2094   -0.4937 B   0  0  0  0  0  0  0  0  0  0  0  0
   -2.7729    2.7636   -1.2118 N   0  0  0  0  0  0  0  0  0  0  0  0
    1.4057    0.8181   -4.8893 B   0  0  0  0  0  0  0  0  0  0  0  0
   -0.2358    3.3642    2.8335 N   0  0  0  0  0  0  0  0  0  0  0  0
    0.8983   -2.8798   -2.8138 B   0  0  0  0  0  0  0  0  0  0  0  0
   -0.4918    3.7666   -1.0101 N   0  0  0  0  0  0  0  0  0  0  0  0
   -0.8060    2.1823    3.2819 B   0  0  0  0  0  0  0  0  0  0  0  0
    1.6561   -1.2744    3.5036 N   0  0  0  0  0  0  0  0  0  0  0  0
   -0.2485    3.4699   -2.3799 B   0  0  0  0  0  0  0  0  0  0  0  0
    1.3087    0.0689    3.8170 N   0  0  0  0  0  0  0  0  0  0  0  0
   -1.5974   -0.5599   -3.0847 B   0  0  0  0  0  0  0  0  0  0  0  0
   -3.8325    1.7768    0.8316 N   0  0  0  0  0  0  0  0  0  0  0  0
    0.3376    4.4960    1.1839 B   0  0  0  0  0  0  0  0  0  0  0  0
    0.0433   -0.0140    4.4567 N   0  0  0  0  0  0  0  0  0  0  0  0
   -2.7088    2.2268    1.6012 B   0  0  0  0  0  0  0  0  0  0  0  0
    3.7727   -0.1326   -0.7655 N   0  0  0  0  0  0  0  0  0  0  0  0
   -2.2534   -3.6394    1.0085 B   0  0  0  0  0  0  0  0  0  0  0  0
    1.0558    3.7334    2.2357 N   0  0  0  0  0  0  0  0  0  0  0  0
   -1.8256   -0.7775    3.2198 B   0  0  0  0  0  0  0  0  0  0  0  0
   -2.4368   -3.6019   -0.4508 N   0  0  0  0  0  0  0  0  0  0  0  0
    3.0187   -1.0737   -1.5028 B   0  0  0  0  0  0  0  0  0  0  0  0
   -3.1580   -1.2526   -0.3843 N   0  0  0  0  0  0  0  0  0  0  0  0
    2.0347    2.9223    1.5617 B   0  0  0  0  0  0  0  0  0  0  0  0
   -0.5074   -2.9001   -2.4328 N   0  0  0  0  0  0  0  0  0  0  0  0
   -1.6735   -2.1129   -2.4916 B   0  0  0  0  0  0  0  0  0  0  0  0
    0.5901    3.9646   -0.1102 N   0  0  0  0  0  0  0  0  0  0  0  0
    1.0903    2.9596   -3.1825 B   0  0  0  0  0  0  0  0  0  0  0  0
    0.0774   -4.3592    1.7213 N   0  0  0  0  0  0  0  0  0  0  0  0
   -1.7840    3.4524   -0.4082 B   0  0  0  0  0  0  0  0  0  0  0  0
   -2.0135    3.4185    1.0316 N   0  0  0  0  0  0  0  0  0  0  0  0
    1.4659   -4.2121    1.4991 B   0  0  0  0  0  0  0  0  0  0  0  0
   -0.7980    1.0642    4.1946 N   0  0  0  0  0  0  0  0  0  0  0  0
   -2.6662   -2.4021   -1.1753 B   0  0  0  0  0  0  0  0  0  0  0  0
   -1.0744   -4.4843    0.9912 N   0  0  0  0  0  0  0  0  0  0  0  0
   -2.5037    0.4914   -2.1091 B   0  0  0  0  0  0  0  0  0  0  0  0
    2.3527   -3.8873    0.4531 N   0  0  0  0  0  0  0  0  0  0  0  0
    3.9123   -0.2024    0.7259 B   0  0  0  0  0  0  0  0  0  0  0  0
    1.9285    1.9570   -2.4651 N   0  0  0  0  0  0  0  0  0  0  0  0
    1.0012    2.2544   -4.6225 B   0  0  0  0  0  0  0  0  0  0  0  0
   -4.1860    0.8290   -0.3475 N   0  0  0  0  0  0  0  0  0  0  0  0
   -1.3389    2.4537   -3.1149 B   0  0  0  0  0  0  0  0  0  0  0  0
   -2.3596    1.9326   -2.3058 N   0  0  0  0  0  0  0  0  0  0  0  0
    3.0731   -2.6455    0.6011 B   0  0  0  0  0  0  0  0  0  0  0  0
    2.3352   -3.6737   -0.9709 N   0  0  0  0  0  0  0  0  0  0  0  0
    2.2179    0.5458    2.8084 B   0  0  0  0  0  0  0  0  0  0  0  0
   -2.0264    0.6119    3.6015 N   0  0  0  0  0  0  0  0  0  0  0  0
   -1.1017   -4.1838   -0.4410 B   0  0  0  0  0  0  0  0  0  0  0  0
   -3.2181    0.0417   -0.9586 N   0  0  0  0  0  0  0  0  0  0  0  0
    3.4478    1.2586   -0.5141 B   0  0  0  0  0  0  0  0  0  0  0  0
    2.5821    1.6330    1.9365 N   0  0  0  0  0  0  0  0  0  0  0  0
    1.4721   -1.5550   -3.5156 B   0  0  0  0  0  0  0  0  0  0  0  0
   -2.1026    1.7542    2.7608 N   0  0  0  0  0  0  0  0  0  0  0  0
    2.0408    0.7119   -3.2115 B   0  0  0  0  0  0  0  0  0  0  0  0
   -2.7209   -1.3417    2.3206 N   0  0  0  0  0  0  0  0  0  0  0  0
    0.6586   -0.5389   -4.4869 B   0  0  0  0  0  0  0  0  0  0  0  0
   -0.1687   -3.7594   -1.3565 N   0  0  0  0  0  0  0  0  0  0  0  0
    0.4856   -2.1056    3.4338 B   0  0  0  0  0  0  0  0  0  0  0  0
   -0.5873   -1.2050    3.8245 N   0  0  0  0  0  0  0  0  0  0  0  0
   -3.2244   -1.4514    1.0003 B   0  0  0  0  0  0  0  0  0  0  0  0
    2.6713   -0.8555    2.6211 N   0  0  0  0  0  0  0  0  0  0  0  0
    1.8786    3.3393   -0.1064 B   0  0  0  0  0  0  0  0  0  0  0  0
    2.8769   -2.3318   -0.7936 N   0  0  0  0  0  0  0  0  0  0  0  0
  1  2  1  0  0  0  0
  2  3  1  0  0  0  0
  3  4  4  0  0  0  0
  4  5  1  0  0  0  0
  5  6  1  0  0  0  0
  6  7  1  0  0  0  0
  7  8  2  0  0  0  0
  8  9  1  0  0  0  0
  9 10  4  0  0  0  0
  6 11  1  0  0  0  0
 10 11  1  0  0  0  0
 11 12  2  0  0  0  0
 10 13  4  0  0  0  0
 13 14  4  0  0  0  0
 14 15  4  0  0  0  0
  9 16  4  0  0  0  0
 15 16  4  0  0  0  0
 14 17  1  0  0  0  0
  4 18  4  0  0  0  0
  7 18  1  0  0  0  0
 18 19  4  0  0  0  0
 19 20  4  0  0  0  0
  3 21  4  0  0  0  0
 20 21  1  0  0  0  0
 21 22  4  0  0  0  0
 22 23  2  0  0  0  0
 23 24  4  0  0  0  0
 20 25  4  0  0  0  0
 24 25  4  0  0  0  0
 24 26  1  0  0  0  0
  1 27  1  0  0  0  0
  1 28  1  0  0  0  0
  1 29  1  0  0  0  0
  2 30  1  0  0  0  0
  2 31  1  0  0  0  0
  5 32  1  0  0  0  0
  5 33  1  0  0  0  0
  8 34  1  0  0  0  0
 13 35  1  0  0  0  0
 15 36  1  0  0  0  0
 16 37  1  0  0  0  0
 17 38  1  0  0  0  0
 22 39  1  0  0  0  0
 23 40  1  0  0  0  0
 25 41  1  0  0  0  0
 26 42  1  0  0  0  0
 50 51  1  0  0  0  0
 53 54  1  0  0  0  0
 49 56  1  0  0  0  0
 52 57  1  0  0  0  0
 56 59  1  0  0  0  0
 58 61  1  0  0  0  0
 60 62  1  0  0  0  0
 50 63  1  0  0  0  0
 53 64  1  0  0  0  0
 49 65  1  0  0  0  0
 62 66  1  0  0  0  0
 64 67  1  0  0  0  0
 48 69  1  0  0  0  0
 56 70  1  0  0  0  0
 65 70  1  0  0  0  0
 69 72  1  0  0  0  0
 46 73  1  0  0  0  0
 68 73  1  0  0  0  0
 70 75  1  0  0  0  0
 57 76  1  0  0  0  0
 63 77  1  0  0  0  0
 76 77  1  0  0  0  0
 58 78  1  0  0  0  0
 65 78  1  0  0  0  0
 61 79  1  0  0  0  0
 47 80  1  0  0  0  0
 54 81  1  0  0  0  0
 58 81  1  0  0  0  0
 49 82  1  0  0  0  0
 67 82  1  0  0  0  0
 81 82  1  0  0  0  0
 47 83  1  0  0  0  0
 80 83  1  0  0  0  0
 59 84  1  0  0  0  0
 66 84  1  0  0  0  0
 72 85  1  0  0  0  0
 74 85  1  0  0  0  0
 77 85  1  0  0  0  0
 69 86  1  0  0  0  0
 80 86  1  0  0  0  0
 63 87  1  0  0  0  0
 83 88  1  0  0  0  0
 43 89  1  0  0  0  0
 44 89  1  0  0  0  0
 68 89  1  0  0  0  0
 45 90  1  0  0  0  0
 79 90  1  0  0  0  0
 51 91  1  0  0  0  0
 55 91  1  0  0  0  0
 79 91  1  0  0  0  0
 53 92  1  0  0  0  0
 64 92  1  0  0  0  0
 51 93  1  0  0  0  0
 61 93  1  0  0  0  0
 54 94  1  0  0  0  0
 87 94  1  0  0  0  0
 93 94  1  0  0  0  0
 43 95  1  0  0  0  0
 88 95  1  0  0  0  0
 52 96  1  0  0  0  0
 88 96  1  0  0  0  0
 62 97  1  0  0  0  0
 71 98  1  0  0  0  0
 84 98  1  0  0  0  0
 72 99  1  0  0  0  0
 86 99  1  0  0  0  0
 74100  1  0  0  0  0
 87100  1  0  0  0  0
 92100  1  0  0  0  0
 44101  1  0  0  0  0
 45101  1  0  0  0  0
 68101  1  0  0  0  0
 44102  1  0  0  0  0
 75102  1  0  0  0  0
 97102  1  0  0  0  0
 46103  1  0  0  0  0
 57103  1  0  0  0  0
 59104  1  0  0  0  0
 67104  1  0  0  0  0
 98104  1  0  0  0  0
 46105  1  0  0  0  0
 55105  1  0  0  0  0
 90105  1  0  0  0  0
 48106  1  0  0  0  0
 71106  1  0  0  0  0
 50107  1  0  0  0  0
 55107  1  0  0  0  0
103107  1  0  0  0  0
 52108  1  0  0  0  0
 76108  1  0  0  0  0
 99108  1  0  0  0  0
 47109  1  0  0  0  0
 60109  1  0  0  0  0
 66110  1  0  0  0  0
 71110  1  0  0  0  0
109110  1  0  0  0  0
 48111  1  0  0  0  0
 74111  1  0  0  0  0
106111  1  0  0  0  0
 43112  1  0  0  0  0
 60112  1  0  0  0  0
 97112  1  0  0  0  0
 45113  1  0  0  0  0
 75113  1  0  0  0  0
 78113  1  0  0  0  0
 73114  1  0  0  0  0
 95114  1  0  0  0  0
 96114  1  0  0  0  0
M  END
