 xtb: 6.7.1pre (5071a88)
          08312622213D

140180  0     0  0            999 V2000
    7.9354    1.8422   15.4482 C   0  0  0  0  0  0  0  0  0  0  0  0
    6.6082    1.6812   14.9673 O   0  0  0  0  0  0  0  0  0  0  0  0
    6.4178    1.3097   13.6646 C   0  0  0  0  0  0  0  0  0  0  0  0
    7.4766    1.0645   12.7777 C   0  0  0  0  0  0  0  0  0  0  0  0
    7.2308    0.6857   11.4584 C   0  0  0  0  0  0  0  0  0  0  0  0
    5.9228    0.5472   11.0110 C   0  0  0  0  0  0  0  0  0  0  0  0
    4.8545    0.7882   11.8851 C   0  0  0  0  0  0  0  0  0  0  0  0
    3.4826    0.6295   11.3719 C   0  0  0  0  0  0  0  0  0  0  0  0
    3.2886    0.2991   10.2046 O   0  0  0  0  0  0  0  0  0  0  0  0
    2.3276    0.8651   12.2549 C   0  0  0  0  0  0  0  0  0  0  0  0
    1.0150    0.7116   11.7705 C   0  0  0  0  0  0  0  0  0  0  0  0
    0.7670    0.3434   10.4694 O   0  0  0  0  0  0  0  0  0  0  0  0
   -0.1024    0.9310   12.5966 C   0  0  0  0  0  0  0  0  0  0  0  0
    0.1070    1.3010   13.9390 C   0  0  0  0  0  0  0  0  0  0  0  0
    1.4250    1.4639   14.4071 C   0  0  0  0  0  0  0  0  0  0  0  0
    1.5646    1.8553   15.7167 O   0  0  0  0  0  0  0  0  0  0  0  0
    2.5378    1.2434   13.5753 C   0  0  0  0  0  0  0  0  0  0  0  0
    3.9151    1.4146   14.0939 C   0  0  0  0  0  0  0  0  0  0  0  0
    4.0333    1.7626   15.2649 O   0  0  0  0  0  0  0  0  0  0  0  0
    5.0875    1.1693   13.2098 C   0  0  0  0  0  0  0  0  0  0  0  0
   -1.0487    1.5807   14.8849 C   0  0  0  0  0  0  0  0  0  0  0  0
   -2.4398    1.1971   14.3576 C   0  0  0  0  0  0  0  0  0  0  0  0
   -2.6941   -0.1948   14.6201 O   0  0  0  0  0  0  0  0  0  0  0  0
   -3.4926    2.0330   15.1137 C   0  0  0  0  0  0  0  0  0  0  0  0
   -3.8488    3.1465   14.7146 O   0  0  0  0  0  0  0  0  0  0  0  0
   -4.1146    1.4230   16.3711 C   0  0  0  0  0  0  0  0  0  0  0  0
   -3.2495    0.6139   17.1446 O   0  0  0  0  0  0  0  0  0  0  0  0
   -2.5516    1.4881   12.8539 C   0  0  0  0  0  0  0  0  0  0  0  0
   -1.4995    0.7190   12.0532 C   0  0  0  0  0  0  0  0  0  0  0  0
   -1.7748   -0.6854   12.1796 O   0  0  0  0  0  0  0  0  0  0  0  0
   -2.2092   -1.2699   10.9461 C   0  0  0  0  0  0  0  0  0  0  0  0
   -2.2033   -2.7908   11.1496 C   0  0  0  0  0  0  0  0  0  0  0  0
   -3.6000   -3.2730   11.5084 C   0  0  0  0  0  0  0  0  0  0  0  0
   -3.6047   -4.7229   11.7590 N   0  0  0  0  0  0  0  0  0  0  0  0
   -4.6016   -2.9158   10.3854 C   0  0  0  0  0  0  0  0  0  0  0  0
   -5.9193   -2.8962   10.9657 O   0  0  0  0  0  0  0  0  0  0  0  0
   -4.2891   -1.5450    9.7486 C   0  0  0  0  0  0  0  0  0  0  0  0
   -3.6462   -1.6482    8.3663 C   0  0  0  0  0  0  0  0  0  0  0  0
   -3.5005   -0.7466   10.6351 O   0  0  0  0  0  0  0  0  0  0  0  0
    8.4874    0.8977   15.4053 H   0  0  0  0  0  0  0  0  0  0  0  0
    7.8761    2.1450   16.4980 H   0  0  0  0  0  0  0  0  0  0  0  0
    8.4594    2.6338   14.9029 H   0  0  0  0  0  0  0  0  0  0  0  0
    8.5140    1.1597   13.0854 H   0  0  0  0  0  0  0  0  0  0  0  0
    8.0614    0.4986   10.7809 H   0  0  0  0  0  0  0  0  0  0  0  0
    5.7403    0.2506    9.9791 H   0  0  0  0  0  0  0  0  0  0  0  0
    1.6287    0.2288   10.0053 H   0  0  0  0  0  0  0  0  0  0  0  0
    2.5257    1.9295   15.9229 H   0  0  0  0  0  0  0  0  0  0  0  0
   -1.0228    2.6558   15.1085 H   0  0  0  0  0  0  0  0  0  0  0  0
   -0.8646    1.0397   15.8219 H   0  0  0  0  0  0  0  0  0  0  0  0
   -2.3353   -0.6979   13.8563 H   0  0  0  0  0  0  0  0  0  0  0  0
   -4.4604    2.2407   17.0108 H   0  0  0  0  0  0  0  0  0  0  0  0
   -4.9828    0.8271   16.0724 H   0  0  0  0  0  0  0  0  0  0  0  0
   -2.9853   -0.1253   16.5570 H   0  0  0  0  0  0  0  0  0  0  0  0
   -2.4351    2.5632   12.6637 H   0  0  0  0  0  0  0  0  0  0  0  0
   -3.5518    1.1999   12.5068 H   0  0  0  0  0  0  0  0  0  0  0  0
   -1.5546    1.0592   11.0109 H   0  0  0  0  0  0  0  0  0  0  0  0
   -1.4994   -1.0103   10.1524 H   0  0  0  0  0  0  0  0  0  0  0  0
   -1.8804   -3.2812   10.2224 H   0  0  0  0  0  0  0  0  0  0  0  0
   -1.4754   -3.0754   11.9197 H   0  0  0  0  0  0  0  0  0  0  0  0
   -3.9179   -2.7912   12.4428 H   0  0  0  0  0  0  0  0  0  0  0  0
   -4.5739   -5.0174   11.9047 H   0  0  0  0  0  0  0  0  0  0  0  0
   -3.1151   -4.9208   12.6312 H   0  0  0  0  0  0  0  0  0  0  0  0
   -4.6268   -3.6893    9.6089 H   0  0  0  0  0  0  0  0  0  0  0  0
   -5.9485   -2.1451   11.5860 H   0  0  0  0  0  0  0  0  0  0  0  0
   -5.2288   -0.9947    9.6174 H   0  0  0  0  0  0  0  0  0  0  0  0
   -2.7173   -2.2247    8.3787 H   0  0  0  0  0  0  0  0  0  0  0  0
   -4.3287   -2.1265    7.6567 H   0  0  0  0  0  0  0  0  0  0  0  0
   -3.3951   -0.6509    7.9895 H   0  0  0  0  0  0  0  0  0  0  0  0
    3.4592   -1.4546    1.6280 B   0  0  0  0  0  0  0  0  0  0  0  0
    3.4564    1.1299    0.9400 N   0  0  0  0  0  0  0  0  0  0  0  0
    2.5399    2.3625   -1.2610 B   0  0  0  0  0  0  0  0  0  0  0  0
    2.2931   -0.6416   -2.7306 N   0  0  0  0  0  0  0  0  0  0  0  0
    0.6905   -3.5611    2.7027 B   0  0  0  0  0  0  0  0  0  0  0  0
   -2.9397   -2.6548    1.7095 N   0  0  0  0  0  0  0  0  0  0  0  0
   -1.0382    4.0851    1.8312 B   0  0  0  0  0  0  0  0  0  0  0  0
   -0.6193    0.0177   -3.9419 N   0  0  0  0  0  0  0  0  0  0  0  0
   -0.4737    1.4453   -4.0917 B   0  0  0  0  0  0  0  0  0  0  0  0
    1.2096   -3.7868   -1.7394 N   0  0  0  0  0  0  0  0  0  0  0  0
   -3.8445    2.2094   -0.4937 B   0  0  0  0  0  0  0  0  0  0  0  0
   -2.7729    2.7636   -1.2118 N   0  0  0  0  0  0  0  0  0  0  0  0
    1.4057    0.8181   -4.8893 B   0  0  0  0  0  0  0  0  0  0  0  0
   -0.2358    3.3642    2.8335 N   0  0  0  0  0  0  0  0  0  0  0  0
    0.8983   -2.8798   -2.8138 B   0  0  0  0  0  0  0  0  0  0  0  0
   -0.4918    3.7666   -1.0101 N   0  0  0  0  0  0  0  0  0  0  0  0
   -0.8060    2.1823    3.2819 B   0  0  0  0  0  0  0  0  0  0  0  0
    1.6561   -1.2744    3.5036 N   0  0  0  0  0  0  0  0  0  0  0  0
   -0.2485    3.4699   -2.3799 B   0  0  0  0  0  0  0  0  0  0  0  0
    1.3087    0.0689    3.8170 N   0  0  0  0  0  0  0  0  0  0  0  0
   -1.5974   -0.5599   -3.0847 B   0  0  0  0  0  0  0  0  0  0  0  0
   -3.8325    1.7768    0.8316 N   0  0  0  0  0  0  0  0  0  0  0  0
    0.3376    4.4960    1.1839 B   0  0  0  0  0  0  0  0  0  0  0  0
    0.0433   -0.0140    4.4567 N   0  0  0  0  0  0  0  0  0  0  0  0
   -2.7088    2.2268    1.6012 B   0  0  0  0  0  0  0  0  0  0  0  0
    3.7727   -0.1326   -0.7655 N   0  0  0  0  0  0  0  0  0  0  0  0
   -2.2534   -3.6394    1.0085 B   0  0  0  0  0  0  0  0  0  0  0  0
    1.0558    3.7334    2.2357 N   0  0  0  0  0  0  0  0  0  0  0  0
   -1.8256   -0.7775    3.2198 B   0  0  0  0  0  0  0  0  0  0  0  0
   -2.4368   -3.6019   -0.4508 N   0  0  0  0  0  0  0  0  0  0  0  0
    3.0187   -1.0737   -1.5028 B   0  0  0  0  0  0  0  0  0  0  0  0
   -3.1580   -1.2526   -0.3843 N   0  0  0  0  0  0  0  0  0  0  0  0
    2.0347    2.9223    1.5617 B   0  0  0  0  0  0  0  0  0  0  0  0
   -0.5074   -2.9001   -2.4328 N   0  0  0  0  0  0  0  0  0  0  0  0
   -1.6735   -2.1129   -2.4916 B   0  0  0  0  0  0  0  0  0  0  0  0
    0.5901    3.9646   -0.1102 N   0  0  0  0  0  0  0  0  0  0  0  0
    1.0903    2.9596   -3.1825 B   0  0  0  0  0  0  0  0  0  0  0  0
    0.0774   -4.3592    1.7213 N   0  0  0  0  0  0  0  0  0  0  0  0
   -1.7840    3.4524   -0.4082 B   0  0  0  0  0  0  0  0  0  0  0  0
   -2.0135    3.4185    1.0316 N   0  0  0  0  0  0  0  0  0  0  0  0
    1.4659   -4.2121    1.4991 B   0  0  0  0  0  0  0  0  0  0  0  0
   -0.7980    1.0642    4.1946 N   0  0  0  0  0  0  0  0  0  0  0  0
   -2.6662   -2.4021   -1.1753 B   0  0  0  0  0  0  0  0  0  0  0  0
   -1.0744   -4.4843    0.9912 N   0  0  0  0  0  0  0  0  0  0  0  0
   -2.5037    0.4914   -2.1091 B   0  0  0  0  0  0  0  0  0  0  0  0
    2.3527   -3.8873    0.4531 N   0  0  0  0  0  0  0  0  0  0  0  0
    3.9123   -0.2024    0.7259 B   0  0  0  0  0  0  0  0  0  0  0  0
    1.9285    1.9570   -2.4651 N   0  0  0  0  0  0  0  0  0  0  0  0
    1.0012    2.2544   -4.6225 B   0  0  0  0  0  0  0  0  0  0  0  0
   -4.1860    0.8290   -0.3475 N   0  0  0  0  0  0  0  0  0  0  0  0
   -1.3389    2.4537   -3.1149 B   0  0  0  0  0  0  0  0  0  0  0  0
   -2.3596    1.9326   -2.3058 N   0  0  0  0  0  0  0  0  0  0  0  0
    3.0731   -2.6455    0.6011 B   0  0  0  0  0  0  0  0  0  0  0  0
    2.3352   -3.6737   -0.9709 N   0  0  0  0  0  0  0  0  0  0  0  0
    2.2179    0.5458    2.8084 B   0  0  0  0  0  0  0  0  0  0  0  0
   -2.0264    0.6119    3.6015 N   0  0  0  0  0  0  0  0  0  0  0  0
   -1.1017   -4.1838   -0.4410 B   0  0  0  0  0  0  0  0  0  0  0  0
   -3.2181    0.0417   -0.9586 N   0  0  0  0  0  0  0  0  0  0  0  0
    3.4478    1.2586   -0.5141 B   0  0  0  0  0  0  0  0  0  0  0  0
    2.5821    1.6330    1.9365 N   0  0  0  0  0  0  0  0  0  0  0  0
    1.4721   -1.5550   -3.5156 B   0  0  0  0  0  0  0  0  0  0  0  0
   -2.1026    1.7542    2.7608 N   0  0  0  0  0  0  0  0  0  0  0  0
    2.0408    0.7119   -3.2115 B   0  0  0  0  0  0  0  0  0  0  0  0
   -2.7209   -1.3417    2.3206 N   0  0  0  0  0  0  0  0  0  0  0  0
    0.6586   -0.5389   -4.4869 B   0  0  0  0  0  0  0  0  0  0  0  0
   -0.1687   -3.7594   -1.3565 N   0  0  0  0  0  0  0  0  0  0  0  0
    0.4856   -2.1056    3.4338 B   0  0  0  0  0  0  0  0  0  0  0  0
   -0.5873   -1.2050    3.8245 N   0  0  0  0  0  0  0  0  0  0  0  0
   -3.2244   -1.4514    1.0003 B   0  0  0  0  0  0  0  0  0  0  0  0
    2.6713   -0.8555    2.6211 N   0  0  0  0  0  0  0  0  0  0  0  0
    1.8786    3.3393   -0.1064 B   0  0  0  0  0  0  0  0  0  0  0  0
    2.8769   -2.3318   -0.7936 N   0  0  0  0  0  0  0  0  0  0  0  0
  1  2  1  0  0  0  0
  2  3  1  0  0  0  0
  3  4  4  0  0  0  0
  4  5  4  0  0  0  0
  5  6  4  0  0  0  0
  6  7  4  0  0  0  0
  7  8  1  0  0  0  0
  8  9  2  0  0  0  0
  8 10  1  0  0  0  0
 10 11  4  0  0  0  0
 11 12  1  0  0  0  0
 11 13  4  0  0  0  0
 13 14  4  0  0  0  0
 14 15  4  0  0  0  0
 15 16  1  0  0  0  0
 10 17  4  0  0  0  0
 15 17  4  0  0  0  0
 17 18  1  0  0  0  0
 18 19  2  0  0  0  0
  3 20  4  0  0  0  0
  7 20  4  0  0  0  0
 18 20  1  0  0  0  0
 14 21  1  0  0  0  0
 21 22  1  0  0  0  0
 22 23  1  0  0  0  0
 22 24  1  0  0  0  0
 24 25  2  0  0  0  0
 24 26  1  0  0  0  0
 26 27  1  0  0  0  0
 22 28  1  0  0  0  0
 13 29  1  0  0  0  0
 28 29  1  0  0  0  0
 29 30  1  0  0  0  0
 30 31  1  0  0  0  0
 31 32  1  0  0  0  0
 32 33  1  0  0  0  0
 33 34  1  0  0  0  0
 33 35  1  0  0  0  0
 35 36  1  0  0  0  0
 35 37  1  0  0  0  0
 37 38  1  0  0  0  0
 31 39  1  0  0  0  0
 37 39  1  0  0  0  0
  1 40  1  0  0  0  0
  1 41  1  0  0  0  0
  1 42  1  0  0  0  0
  4 43  1  0  0  0  0
  5 44  1  0  0  0  0
  6 45  1  0  0  0  0
 12 46  1  0  0  0  0
 16 47  1  0  0  0  0
 21 48  1  0  0  0  0
 21 49  1  0  0  0  0
 23 50  1  0  0  0  0
 26 51  1  0  0  0  0
 26 52  1  0  0  0  0
 27 53  1  0  0  0  0
 28 54  1  0  0  0  0
 28 55  1  0  0  0  0
 29 56  1  0  0  0  0
 31 57  1  0  0  0  0
 32 58  1  0  0  0  0
 32 59  1  0  0  0  0
 33 60  1  0  0  0  0
 34 61  1  0  0  0  0
 34 62  1  0  0  0  0
 35 63  1  0  0  0  0
 36 64  1  0  0  0  0
 37 65  1  0  0  0  0
 38 66  1  0  0  0  0
 38 67  1  0  0  0  0
 38 68  1  0  0  0  0
 76 77  1  0  0  0  0
 79 80  1  0  0  0  0
 75 82  1  0  0  0  0
 78 83  1  0  0  0  0
 82 85  1  0  0  0  0
 84 87  1  0  0  0  0
 86 88  1  0  0  0  0
 76 89  1  0  0  0  0
 79 90  1  0  0  0  0
 75 91  1  0  0  0  0
 88 92  1  0  0  0  0
 90 93  1  0  0  0  0
 74 95  1  0  0  0  0
 82 96  1  0  0  0  0
 91 96  1  0  0  0  0
 95 98  1  0  0  0  0
 72 99  1  0  0  0  0
 94 99  1  0  0  0  0
 96101  1  0  0  0  0
 83102  1  0  0  0  0
 89103  1  0  0  0  0
102103  1  0  0  0  0
 84104  1  0  0  0  0
 91104  1  0  0  0  0
 87105  1  0  0  0  0
 73106  1  0  0  0  0
 80107  1  0  0  0  0
 84107  1  0  0  0  0
 75108  1  0  0  0  0
 93108  1  0  0  0  0
107108  1  0  0  0  0
 73109  1  0  0  0  0
106109  1  0  0  0  0
 85110  1  0  0  0  0
 92110  1  0  0  0  0
 98111  1  0  0  0  0
100111  1  0  0  0  0
103111  1  0  0  0  0
 95112  1  0  0  0  0
106112  1  0  0  0  0
 89113  1  0  0  0  0
109114  1  0  0  0  0
 69115  1  0  0  0  0
 70115  1  0  0  0  0
 94115  1  0  0  0  0
 71116  1  0  0  0  0
105116  1  0  0  0  0
 77117  1  0  0  0  0
 81117  1  0  0  0  0
105117  1  0  0  0  0
 79118  1  0  0  0  0
 90118  1  0  0  0  0
 77119  1  0  0  0  0
 87119  1  0  0  0  0
 80120  1  0  0  0  0
113120  1  0  0  0  0
119120  1  0  0  0  0
 69121  1  0  0  0  0
114121  1  0  0  0  0
 78122  1  0  0  0  0
114122  1  0  0  0  0
 88123  1  0  0  0  0
 97124  1  0  0  0  0
110124  1  0  0  0  0
 98125  1  0  0  0  0
112125  1  0  0  0  0
100126  1  0  0  0  0
113126  1  0  0  0  0
118126  1  0  0  0  0
 70127  1  0  0  0  0
 71127  1  0  0  0  0
 94127  1  0  0  0  0
 70128  1  0  0  0  0
101128  1  0  0  0  0
123128  1  0  0  0  0
 72129  1  0  0  0  0
 83129  1  0  0  0  0
 85130  1  0  0  0  0
 93130  1  0  0  0  0
124130  1  0  0  0  0
 72131  1  0  0  0  0
 81131  1  0  0  0  0
116131  1  0  0  0  0
 74132  1  0  0  0  0
 97132  1  0  0  0  0
 76133  1  0  0  0  0
 81133  1  0  0  0  0
129133  1  0  0  0  0
 78134  1  0  0  0  0
102134  1  0  0  0  0
125134  1  0  0  0  0
 73135  1  0  0  0  0
 86135  1  0  0  0  0
 92136  1  0  0  0  0
 97136  1  0  0  0  0
135136  1  0  0  0  0
 74137  1  0  0  0  0
100137  1  0  0  0  0
132137  1  0  0  0  0
 69138  1  0  0  0  0
 86138  1  0  0  0  0
123138  1  0  0  0  0
 71139  1  0  0  0  0
101139  1  0  0  0  0
104139  1  0  0  0  0
 99140  1  0  0  0  0
121140  1  0  0  0  0
122140  1  0  0  0  0
M  END
