 xtb: 6.7.1pre (5071a88)
          08312618343D

140126  0     0  0            999 V2000
    7.9354    1.8422    2.7843 C   0  0  0  0  0  0  0  0  0  0  0  0
    6.6082    1.6812    2.3034 O   0  0  0  0  0  0  0  0  0  0  0  0
    6.4178    1.3097    1.0007 C   0  0  0  0  0  0  0  0  0  0  0  0
    7.4766    1.0645    0.1138 C   0  0  0  0  0  0  0  0  0  0  0  0
    7.2308    0.6857   -1.2055 C   0  0  0  0  0  0  0  0  0  0  0  0
    5.9228    0.5472   -1.6529 C   0  0  0  0  0  0  0  0  0  0  0  0
    4.8545    0.7882   -0.7787 C   0  0  0  0  0  0  0  0  0  0  0  0
    3.4826    0.6295   -1.2919 C   0  0  0  0  0  0  0  0  0  0  0  0
    3.2886    0.2991   -2.4593 O   0  0  0  0  0  0  0  0  0  0  0  0
    2.3276    0.8651   -0.4089 C   0  0  0  0  0  0  0  0  0  0  0  0
    1.0150    0.7116   -0.8933 C   0  0  0  0  0  0  0  0  0  0  0  0
    0.7670    0.3434   -2.1945 O   0  0  0  0  0  0  0  0  0  0  0  0
   -0.1024    0.9310   -0.0673 C   0  0  0  0  0  0  0  0  0  0  0  0
    0.1070    1.3010    1.2751 C   0  0  0  0  0  0  0  0  0  0  0  0
    1.4250    1.4639    1.7433 C   0  0  0  0  0  0  0  0  0  0  0  0
    1.5646    1.8553    3.0528 O   0  0  0  0  0  0  0  0  0  0  0  0
    2.5378    1.2434    0.9115 C   0  0  0  0  0  0  0  0  0  0  0  0
    3.9151    1.4146    1.4300 C   0  0  0  0  0  0  0  0  0  0  0  0
    4.0333    1.7626    2.6010 O   0  0  0  0  0  0  0  0  0  0  0  0
    5.0875    1.1693    0.5459 C   0  0  0  0  0  0  0  0  0  0  0  0
   -1.0487    1.5807    2.2211 C   0  0  0  0  0  0  0  0  0  0  0  0
   -2.4398    1.1971    1.6937 C   0  0  0  0  0  0  0  0  0  0  0  0
   -2.6941   -0.1948    1.9562 O   0  0  0  0  0  0  0  0  0  0  0  0
   -3.4926    2.0330    2.4498 C   0  0  0  0  0  0  0  0  0  0  0  0
   -3.8488    3.1465    2.0508 O   0  0  0  0  0  0  0  0  0  0  0  0
   -4.1146    1.4230    3.7072 C   0  0  0  0  0  0  0  0  0  0  0  0
   -3.2495    0.6139    4.4807 O   0  0  0  0  0  0  0  0  0  0  0  0
   -2.5516    1.4881    0.1900 C   0  0  0  0  0  0  0  0  0  0  0  0
   -1.4995    0.7190   -0.6106 C   0  0  0  0  0  0  0  0  0  0  0  0
   -1.7748   -0.6854   -0.4843 O   0  0  0  0  0  0  0  0  0  0  0  0
   -2.2092   -1.2699   -1.7177 C   0  0  0  0  0  0  0  0  0  0  0  0
   -2.2033   -2.7908   -1.5143 C   0  0  0  0  0  0  0  0  0  0  0  0
   -3.6000   -3.2730   -1.1555 C   0  0  0  0  0  0  0  0  0  0  0  0
   -3.6047   -4.7229   -0.9048 N   0  0  0  0  0  0  0  0  0  0  0  0
   -4.6016   -2.9158   -2.2784 C   0  0  0  0  0  0  0  0  0  0  0  0
   -5.9193   -2.8962   -1.6981 O   0  0  0  0  0  0  0  0  0  0  0  0
   -4.2891   -1.5450   -2.9153 C   0  0  0  0  0  0  0  0  0  0  0  0
   -3.6462   -1.6482   -4.2976 C   0  0  0  0  0  0  0  0  0  0  0  0
   -3.5005   -0.7466   -2.0288 O   0  0  0  0  0  0  0  0  0  0  0  0
    8.4874    0.8977    2.7415 H   0  0  0  0  0  0  0  0  0  0  0  0
    7.8761    2.1450    3.8342 H   0  0  0  0  0  0  0  0  0  0  0  0
    8.4594    2.6338    2.2390 H   0  0  0  0  0  0  0  0  0  0  0  0
    8.5140    1.1597    0.4215 H   0  0  0  0  0  0  0  0  0  0  0  0
    8.0614    0.4986   -1.8829 H   0  0  0  0  0  0  0  0  0  0  0  0
    5.7403    0.2506   -2.6848 H   0  0  0  0  0  0  0  0  0  0  0  0
    1.6287    0.2288   -2.6585 H   0  0  0  0  0  0  0  0  0  0  0  0
    2.5257    1.9295    3.2590 H   0  0  0  0  0  0  0  0  0  0  0  0
   -1.0228    2.6558    2.4446 H   0  0  0  0  0  0  0  0  0  0  0  0
   -0.8646    1.0397    3.1581 H   0  0  0  0  0  0  0  0  0  0  0  0
   -2.3353   -0.6979    1.1924 H   0  0  0  0  0  0  0  0  0  0  0  0
   -4.4604    2.2407    4.3469 H   0  0  0  0  0  0  0  0  0  0  0  0
   -4.9828    0.8271    3.4085 H   0  0  0  0  0  0  0  0  0  0  0  0
   -2.9853   -0.1253    3.8931 H   0  0  0  0  0  0  0  0  0  0  0  0
   -2.4351    2.5632   -0.0002 H   0  0  0  0  0  0  0  0  0  0  0  0
   -3.5518    1.1999   -0.1570 H   0  0  0  0  0  0  0  0  0  0  0  0
   -1.5546    1.0592   -1.6530 H   0  0  0  0  0  0  0  0  0  0  0  0
   -1.4994   -1.0103   -2.5114 H   0  0  0  0  0  0  0  0  0  0  0  0
   -1.8804   -3.2812   -2.4414 H   0  0  0  0  0  0  0  0  0  0  0  0
   -1.4754   -3.0754   -0.7441 H   0  0  0  0  0  0  0  0  0  0  0  0
   -3.9179   -2.7912   -0.2211 H   0  0  0  0  0  0  0  0  0  0  0  0
   -4.5739   -5.0174   -0.7592 H   0  0  0  0  0  0  0  0  0  0  0  0
   -3.1151   -4.9208   -0.0327 H   0  0  0  0  0  0  0  0  0  0  0  0
   -4.6268   -3.6893   -3.0550 H   0  0  0  0  0  0  0  0  0  0  0  0
   -5.9485   -2.1451   -1.0778 H   0  0  0  0  0  0  0  0  0  0  0  0
   -5.2288   -0.9947   -3.0465 H   0  0  0  0  0  0  0  0  0  0  0  0
   -2.7173   -2.2247   -4.2851 H   0  0  0  0  0  0  0  0  0  0  0  0
   -4.3287   -2.1265   -5.0072 H   0  0  0  0  0  0  0  0  0  0  0  0
   -3.3951   -0.6509   -4.6744 H   0  0  0  0  0  0  0  0  0  0  0  0
    2.1012    0.0000    3.3450 B   0  0  0  0  0  0  0  0  0  0  0  0
   -2.1012    0.0000    3.3450 B   0  0  0  0  0  0  0  0  0  0  0  0
    0.0000    2.1012    3.3450 B   0  0  0  0  0  0  0  0  0  0  0  0
    0.0000   -2.1012    3.3450 B   0  0  0  0  0  0  0  0  0  0  0  0
    3.3450    2.1012    0.0000 B   0  0  0  0  0  0  0  0  0  0  0  0
    3.3450   -2.1012    0.0000 B   0  0  0  0  0  0  0  0  0  0  0  0
    3.3450    0.0000    2.1012 B   0  0  0  0  0  0  0  0  0  0  0  0
    3.3450    0.0000   -2.1012 B   0  0  0  0  0  0  0  0  0  0  0  0
   -3.3450    2.1012    0.0000 B   0  0  0  0  0  0  0  0  0  0  0  0
   -3.3450   -2.1012    0.0000 B   0  0  0  0  0  0  0  0  0  0  0  0
   -3.3450    0.0000    2.1012 B   0  0  0  0  0  0  0  0  0  0  0  0
   -3.3450    0.0000   -2.1012 B   0  0  0  0  0  0  0  0  0  0  0  0
    2.1012    0.0000   -3.3450 B   0  0  0  0  0  0  0  0  0  0  0  0
   -2.1012    0.0000   -3.3450 B   0  0  0  0  0  0  0  0  0  0  0  0
    0.0000    2.1012   -3.3450 B   0  0  0  0  0  0  0  0  0  0  0  0
    0.0000   -2.1012   -3.3450 B   0  0  0  0  0  0  0  0  0  0  0  0
    0.0000    3.3450    2.1012 B   0  0  0  0  0  0  0  0  0  0  0  0
    0.0000    3.3450   -2.1012 B   0  0  0  0  0  0  0  0  0  0  0  0
    0.0000   -3.3450    2.1012 B   0  0  0  0  0  0  0  0  0  0  0  0
    0.0000   -3.3450   -2.1012 B   0  0  0  0  0  0  0  0  0  0  0  0
    2.1012    3.3450    0.0000 B   0  0  0  0  0  0  0  0  0  0  0  0
   -2.1012    3.3450    0.0000 B   0  0  0  0  0  0  0  0  0  0  0  0
    2.1012   -3.3450    0.0000 B   0  0  0  0  0  0  0  0  0  0  0  0
   -2.1012   -3.3450    0.0000 B   0  0  0  0  0  0  0  0  0  0  0  0
    1.4800    1.4800    3.5800 B   0  0  0  0  0  0  0  0  0  0  0  0
   -1.4800    1.4800    3.5800 B   0  0  0  0  0  0  0  0  0  0  0  0
    1.4800   -1.4800    3.5800 B   0  0  0  0  0  0  0  0  0  0  0  0
   -1.4800   -1.4800    3.5800 B   0  0  0  0  0  0  0  0  0  0  0  0
    3.5800    1.4800    1.4800 B   0  0  0  0  0  0  0  0  0  0  0  0
    3.5800   -1.4800    1.4800 B   0  0  0  0  0  0  0  0  0  0  0  0
    3.5800    1.4800   -1.4800 B   0  0  0  0  0  0  0  0  0  0  0  0
    3.5800   -1.4800   -1.4800 B   0  0  0  0  0  0  0  0  0  0  0  0
   -3.5800    1.4800    1.4800 B   0  0  0  0  0  0  0  0  0  0  0  0
   -3.5800   -1.4800    1.4800 B   0  0  0  0  0  0  0  0  0  0  0  0
   -3.5800    1.4800   -1.4800 B   0  0  0  0  0  0  0  0  0  0  0  0
   -3.5800   -1.4800   -1.4800 B   0  0  0  0  0  0  0  0  0  0  0  0
    2.1012    0.0000    3.9200 N   0  0  0  0  0  0  0  0  0  0  0  0
   -2.1012    0.0000    3.9200 N   0  0  0  0  0  0  0  0  0  0  0  0
    0.0000    2.1012    3.9200 N   0  0  0  0  0  0  0  0  0  0  0  0
    0.0000   -2.1012    3.9200 N   0  0  0  0  0  0  0  0  0  0  0  0
    3.9200    2.1012    0.0000 N   0  0  0  0  0  0  0  0  0  0  0  0
    3.9200   -2.1012    0.0000 N   0  0  0  0  0  0  0  0  0  0  0  0
    3.9200    0.0000    2.1012 N   0  0  0  0  0  0  0  0  0  0  0  0
    3.9200    0.0000   -2.1012 N   0  0  0  0  0  0  0  0  0  0  0  0
   -3.9200    2.1012    0.0000 N   0  0  0  0  0  0  0  0  0  0  0  0
   -3.9200   -2.1012    0.0000 N   0  0  0  0  0  0  0  0  0  0  0  0
   -3.9200    0.0000    2.1012 N   0  0  0  0  0  0  0  0  0  0  0  0
   -3.9200    0.0000   -2.1012 N   0  0  0  0  0  0  0  0  0  0  0  0
    2.1012    0.0000   -3.9200 N   0  0  0  0  0  0  0  0  0  0  0  0
   -2.1012    0.0000   -3.9200 N   0  0  0  0  0  0  0  0  0  0  0  0
    0.0000    2.1012   -3.9200 N   0  0  0  0  0  0  0  0  0  0  0  0
    0.0000   -2.1012   -3.9200 N   0  0  0  0  0  0  0  0  0  0  0  0
    0.0000    3.9200    2.1012 N   0  0  0  0  0  0  0  0  0  0  0  0
    0.0000    3.9200   -2.1012 N   0  0  0  0  0  0  0  0  0  0  0  0
    0.0000   -3.9200    2.1012 N   0  0  0  0  0  0  0  0  0  0  0  0
    0.0000   -3.9200   -2.1012 N   0  0  0  0  0  0  0  0  0  0  0  0
    2.1012    3.9200    0.0000 N   0  0  0  0  0  0  0  0  0  0  0  0
   -2.1012    3.9200    0.0000 N   0  0  0  0  0  0  0  0  0  0  0  0
    2.1012   -3.9200    0.0000 N   0  0  0  0  0  0  0  0  0  0  0  0
   -2.1012   -3.9200    0.0000 N   0  0  0  0  0  0  0  0  0  0  0  0
    1.4800    1.4800    4.2200 N   0  0  0  0  0  0  0  0  0  0  0  0
   -1.4800    1.4800    4.2200 N   0  0  0  0  0  0  0  0  0  0  0  0
    1.4800   -1.4800    4.2200 N   0  0  0  0  0  0  0  0  0  0  0  0
   -1.4800   -1.4800    4.2200 N   0  0  0  0  0  0  0  0  0  0  0  0
    4.2200    1.4800    1.4800 N   0  0  0  0  0  0  0  0  0  0  0  0
    4.2200   -1.4800    1.4800 N   0  0  0  0  0  0  0  0  0  0  0  0
    4.2200    1.4800   -1.4800 N   0  0  0  0  0  0  0  0  0  0  0  0
    4.2200   -1.4800   -1.4800 N   0  0  0  0  0  0  0  0  0  0  0  0
   -4.2200    1.4800    1.4800 N   0  0  0  0  0  0  0  0  0  0  0  0
   -4.2200   -1.4800    1.4800 N   0  0  0  0  0  0  0  0  0  0  0  0
   -4.2200    1.4800   -1.4800 N   0  0  0  0  0  0  0  0  0  0  0  0
   -4.2200   -1.4800   -1.4800 N   0  0  0  0  0  0  0  0  0  0  0  0
  1  2  1  0  0  0  0
  2  3  1  0  0  0  0
  3  4  4  0  0  0  0
  4  5  4  0  0  0  0
  5  6  4  0  0  0  0
  6  7  1  0  0  0  0
  7  8  1  0  0  0  0
  8 10  1  0  0  0  0
 10 11  1  0  0  0  0
 11 12  1  0  0  0  0
 11 13  4  0  0  0  0
 13 14  1  0  0  0  0
 14 15  1  0  0  0  0
 15 16  1  0  0  0  0
 10 17  1  0  0  0  0
 15 17  1  0  0  0  0
  3 20  1  0  0  0  0
  7 20  1  0  0  0  0
 14 21  1  0  0  0  0
 21 22  1  0  0  0  0
 22 23  1  0  0  0  0
 22 24  1  0  0  0  0
 24 25  1  0  0  0  0
 24 26  1  0  0  0  0
 26 27  1  0  0  0  0
 22 28  1  0  0  0  0
 13 29  1  0  0  0  0
 28 29  1  0  0  0  0
 29 30  1  0  0  0  0
 30 31  1  0  0  0  0
 31 32  1  0  0  0  0
 32 33  1  0  0  0  0
 33 34  1  0  0  0  0
 33 35  1  0  0  0  0
 35 36  1  0  0  0  0
 35 37  1  0  0  0  0
 37 38  1  0  0  0  0
 37 39  1  0  0  0  0
  1 40  1  0  0  0  0
  1 41  1  0  0  0  0
  1 42  1  0  0  0  0
  4 43  1  0  0  0  0
  5 44  1  0  0  0  0
  6 45  1  0  0  0  0
 12 46  1  0  0  0  0
 16 47  1  0  0  0  0
 21 48  1  0  0  0  0
 21 49  1  0  0  0  0
 23 50  1  0  0  0  0
 26 51  1  0  0  0  0
 26 52  1  0  0  0  0
 27 53  1  0  0  0  0
 29 56  1  0  0  0  0
 31 57  1  0  0  0  0
 32 58  1  0  0  0  0
 32 59  1  0  0  0  0
 34 61  1  0  0  0  0
 34 62  1  0  0  0  0
 35 63  1  0  0  0  0
 36 64  1  0  0  0  0
 37 65  1  0  0  0  0
 38 66  1  0  0  0  0
 38 67  1  0  0  0  0
 38 68  1  0  0  0  0
  8 76  1  0  0  0  0
  9 76  2  0  0  0  0
 28 77  1  0  0  0  0
 23 79  1  0  0  0  0
 39 80  1  0  0  0  0
 16 93  1  0  0  0  0
 21 94  1  0  0  0  0
 17 97  1  0  0  0  0
 18 97  1  0  0  0  0
 19 97  1  0  0  0  0
  8 99  1  0  0  0  0
 22101  1  0  0  0  0
 24101  1  0  0  0  0
 31104  1  0  0  0  0
 39104  1  0  0  0  0
 69105  3  0  0  0  0
 70106  3  0  0  0  0
 71107  3  0  0  0  0
 72108  3  0  0  0  0
 73109  3  0  0  0  0
 74110  3  0  0  0  0
 75111  3  0  0  0  0
  8112  1  0  0  0  0
  9112  1  0  0  0  0
 76112  1  0  0  0  0
 77113  3  0  0  0  0
 60114  1  0  0  0  0
 78114  3  0  0  0  0
 23115  1  0  0  0  0
 79115  2  0  0  0  0
 39116  1  0  0  0  0
 80116  2  0  0  0  0
 81117  3  0  0  0  0
 82118  3  0  0  0  0
 83119  3  0  0  0  0
 84120  3  0  0  0  0
 85121  3  0  0  0  0
 86122  3  0  0  0  0
 87123  3  0  0  0  0
 88124  3  0  0  0  0
 89125  3  0  0  0  0
 90126  3  0  0  0  0
 91127  3  0  0  0  0
 92128  3  0  0  0  0
 16129  1  0  0  0  0
 93129  2  0  0  0  0
 94130  3  0  0  0  0
 95131  3  0  0  0  0
 96132  3  0  0  0  0
 18133  3  0  0  0  0
 97133  1  0  0  0  0
 98134  3  0  0  0  0
  7135  1  0  0  0  0
  8135  1  0  0  0  0
 99135  2  0  0  0  0
100136  3  0  0  0  0
 24137  1  0  0  0  0
101137  2  0  0  0  0
102138  3  0  0  0  0
103139  3  0  0  0  0
 39140  1  0  0  0  0
104140  2  0  0  0  0
M  END
