 xtb: 6.7.1pre (5071a88)
          08312622233D

108147  0     0  0            999 V2000
    0.1758   -5.8096   11.7844 F   0  0  0  0  0  0  0  0  0  0  0  0
    0.7240   -4.9599   10.9007 C   0  0  0  0  0  0  0  0  0  0  0  0
    2.0530   -5.1143   10.9984 F   0  0  0  0  0  0  0  0  0  0  0  0
    0.2832   -3.5399   11.1134 C   0  0  0  0  0  0  0  0  0  0  0  0
    1.1422   -2.4946   10.8040 C   0  0  0  0  0  0  0  0  0  0  0  0
    0.7262   -1.1908   11.0007 C   0  0  0  0  0  0  0  0  0  0  0  0
   -0.5410   -0.9236   11.5030 C   0  0  0  0  0  0  0  0  0  0  0  0
   -1.4000   -1.9777   11.7876 C   0  0  0  0  0  0  0  0  0  0  0  0
   -0.9940   -3.2846   11.5956 C   0  0  0  0  0  0  0  0  0  0  0  0
   -1.0035    0.5052   11.7287 C   0  0  0  0  0  0  0  0  0  0  0  0
    0.1396    1.3848   12.1935 C   0  0  0  0  0  0  0  0  0  0  0  0
    0.6251    1.2004   13.4795 C   0  0  0  0  0  0  0  0  0  0  0  0
    1.6826    1.9626   13.9325 C   0  0  0  0  0  0  0  0  0  0  0  0
    2.1463    1.7655   15.1880 F   0  0  0  0  0  0  0  0  0  0  0  0
    2.2810    2.9169   13.1293 C   0  0  0  0  0  0  0  0  0  0  0  0
    1.8010    3.1017   11.8506 C   0  0  0  0  0  0  0  0  0  0  0  0
    0.7299    2.3470   11.3584 C   0  0  0  0  0  0  0  0  0  0  0  0
    0.2547    2.6035   10.0941 N   0  0  0  0  0  0  0  0  0  0  0  0
   -0.6479    1.6912    9.4550 C   0  0  0  0  0  0  0  0  0  0  0  0
   -1.6906    2.3217    8.5098 C   0  0  0  0  0  0  0  0  0  0  0  0
   -1.5238    3.0527    7.5719 O   0  0  0  0  0  0  0  0  0  0  0  0
   -2.8806    1.8227    8.9659 N   0  0  0  0  0  0  0  0  0  0  0  0
   -2.7890    1.1365   10.1450 N   0  0  0  0  0  0  0  0  0  0  0  0
   -1.5561    1.0487   10.4639 C   0  0  0  0  0  0  0  0  0  0  0  0
    0.3830   -5.4211    9.6805 F   0  0  0  0  0  0  0  0  0  0  0  0
    2.1302   -2.7026   10.4232 H   0  0  0  0  0  0  0  0  0  0  0  0
    1.3999   -0.3772   10.7791 H   0  0  0  0  0  0  0  0  0  0  0  0
   -2.3902   -1.7713   12.1640 H   0  0  0  0  0  0  0  0  0  0  0  0
   -1.6557   -4.1049   11.8271 H   0  0  0  0  0  0  0  0  0  0  0  0
   -1.7990    0.4951   12.4801 H   0  0  0  0  0  0  0  0  0  0  0  0
    0.1822    0.4589   14.1263 H   0  0  0  0  0  0  0  0  0  0  0  0
    3.1076    3.4969   13.5064 H   0  0  0  0  0  0  0  0  0  0  0  0
    2.2542    3.8406   11.2075 H   0  0  0  0  0  0  0  0  0  0  0  0
    0.8146    3.1838    9.4894 H   0  0  0  0  0  0  0  0  0  0  0  0
   -0.1250    0.9163    8.8632 H   0  0  0  0  0  0  0  0  0  0  0  0
   -3.7953    2.0356    8.5997 H   0  0  0  0  0  0  0  0  0  0  0  0
    3.4618   -1.4618    1.6134 B   0  0  0  0  0  0  0  0  0  0  0  0
    3.4572    1.1273    0.9463 N   0  0  0  0  0  0  0  0  0  0  0  0
    2.5282    2.3779   -1.2398 B   0  0  0  0  0  0  0  0  0  0  0  0
    2.2737   -0.6139   -2.7329 N   0  0  0  0  0  0  0  0  0  0  0  0
    0.7035   -3.5755    2.6875 B   0  0  0  0  0  0  0  0  0  0  0  0
   -2.9318   -2.6622    1.7227 N   0  0  0  0  0  0  0  0  0  0  0  0
   -1.0313    4.0741    1.8906 B   0  0  0  0  0  0  0  0  0  0  0  0
   -0.6465    0.0548   -3.9217 N   0  0  0  0  0  0  0  0  0  0  0  0
   -0.5015    1.4837   -4.0598 B   0  0  0  0  0  0  0  0  0  0  0  0
    1.1959   -3.7664   -1.7607 N   0  0  0  0  0  0  0  0  0  0  0  0
   -3.8495    2.2174   -0.4337 B   0  0  0  0  0  0  0  0  0  0  0  0
   -2.7830    2.7775   -1.1546 N   0  0  0  0  0  0  0  0  0  0  0  0
    1.3730    0.8633   -4.8742 B   0  0  0  0  0  0  0  0  0  0  0  0
   -0.2215    3.3443    2.8792 N   0  0  0  0  0  0  0  0  0  0  0  0
    0.8782   -2.8514   -2.8261 B   0  0  0  0  0  0  0  0  0  0  0  0
   -0.5011    3.7791   -0.9588 N   0  0  0  0  0  0  0  0  0  0  0  0
   -0.7923    2.1646    3.3316 B   0  0  0  0  0  0  0  0  0  0  0  0
    1.6752   -1.2971    3.5079 N   0  0  0  0  0  0  0  0  0  0  0  0
   -0.2661    3.4942   -2.3324 B   0  0  0  0  0  0  0  0  0  0  0  0
    1.3313    0.0447    3.8369 N   0  0  0  0  0  0  0  0  0  0  0  0
   -1.6195   -0.5302   -3.0635 B   0  0  0  0  0  0  0  0  0  0  0  0
   -3.8289    1.7728    0.8876 N   0  0  0  0  0  0  0  0  0  0  0  0
    0.3400    4.4896    1.2365 B   0  0  0  0  0  0  0  0  0  0  0  0
    0.0660   -0.0435    4.4807 N   0  0  0  0  0  0  0  0  0  0  0  0
   -2.7015    2.2177    1.6559 B   0  0  0  0  0  0  0  0  0  0  0  0
    3.7644   -0.1209   -0.7718 N   0  0  0  0  0  0  0  0  0  0  0  0
   -2.2502   -3.6415    1.0091 B   0  0  0  0  0  0  0  0  0  0  0  0
    1.0651    3.7183    2.2772 N   0  0  0  0  0  0  0  0  0  0  0  0
   -1.8079   -0.7970    3.2419 B   0  0  0  0  0  0  0  0  0  0  0  0
   -2.4423   -3.5930   -0.4486 N   0  0  0  0  0  0  0  0  0  0  0  0
    3.0063   -1.0561   -1.5129 B   0  0  0  0  0  0  0  0  0  0  0  0
   -3.1622   -1.2445   -0.3592 N   0  0  0  0  0  0  0  0  0  0  0  0
    2.0401    2.9151    1.5911 B   0  0  0  0  0  0  0  0  0  0  0  0
   -0.5255   -2.8760   -2.4376 N   0  0  0  0  0  0  0  0  0  0  0  0
   -1.6919   -2.0883   -2.4831 B   0  0  0  0  0  0  0  0  0  0  0  0
    0.5860    3.9700   -0.0637 N   0  0  0  0  0  0  0  0  0  0  0  0
    1.0677    2.9911   -3.1481 B   0  0  0  0  0  0  0  0  0  0  0  0
    0.0841   -4.3655    1.7034 N   0  0  0  0  0  0  0  0  0  0  0  0
   -1.7894    3.4593   -0.3508 B   0  0  0  0  0  0  0  0  0  0  0  0
   -2.0101    3.4133    1.0898 N   0  0  0  0  0  0  0  0  0  0  0  0
    1.4713   -4.2177    1.4742 B   0  0  0  0  0  0  0  0  0  0  0  0
   -0.7778    1.0359    4.2313 N   0  0  0  0  0  0  0  0  0  0  0  0
   -2.6761   -2.3878   -1.1625 B   0  0  0  0  0  0  0  0  0  0  0  0
   -1.0711   -4.4852    0.9786 N   0  0  0  0  0  0  0  0  0  0  0  0
   -2.5198    0.5135   -2.0739 B   0  0  0  0  0  0  0  0  0  0  0  0
    2.3508   -3.8844    0.4247 N   0  0  0  0  0  0  0  0  0  0  0  0
    3.9106   -0.2033    0.7183 B   0  0  0  0  0  0  0  0  0  0  0  0
    1.9103    1.9827   -2.4438 N   0  0  0  0  0  0  0  0  0  0  0  0
    0.9701    2.2974   -4.5932 B   0  0  0  0  0  0  0  0  0  0  0  0
   -4.1903    0.8358   -0.2974 N   0  0  0  0  0  0  0  0  0  0  0  0
   -1.3609    2.4841   -3.0694 B   0  0  0  0  0  0  0  0  0  0  0  0
   -2.3768    1.9564   -2.2586 N   0  0  0  0  0  0  0  0  0  0  0  0
    3.0720   -2.6442    0.5784 B   0  0  0  0  0  0  0  0  0  0  0  0
    2.3259   -3.6602   -0.9974 N   0  0  0  0  0  0  0  0  0  0  0  0
    2.2280    0.5283    2.8170 B   0  0  0  0  0  0  0  0  0  0  0  0
   -2.0076    0.5877    3.6387 N   0  0  0  0  0  0  0  0  0  0  0  0
   -1.1070   -4.1748   -0.4514 B   0  0  0  0  0  0  0  0  0  0  0  0
   -3.2265    0.0541   -0.9226 N   0  0  0  0  0  0  0  0  0  0  0  0
    3.4397    1.2676   -0.5071 B   0  0  0  0  0  0  0  0  0  0  0  0
    2.5885    1.6213    1.9521 N   0  0  0  0  0  0  0  0  0  0  0  0
    1.4478   -1.5207   -3.5204 B   0  0  0  0  0  0  0  0  0  0  0  0
   -2.0899    1.7379    2.8096 N   0  0  0  0  0  0  0  0  0  0  0  0
    2.0183    0.7437   -3.2012 B   0  0  0  0  0  0  0  0  0  0  0  0
   -2.7071   -1.3536    2.3421 N   0  0  0  0  0  0  0  0  0  0  0  0
    0.6284   -0.4969   -4.4788 B   0  0  0  0  0  0  0  0  0  0  0  0
   -0.1801   -3.7436   -1.3701 N   0  0  0  0  0  0  0  0  0  0  0  0
    0.5029   -2.1266    3.4330 B   0  0  0  0  0  0  0  0  0  0  0  0
   -0.5676   -1.2307    3.8399 N   0  0  0  0  0  0  0  0  0  0  0  0
   -3.2193   -1.4535    1.0242 B   0  0  0  0  0  0  0  0  0  0  0  0
    2.6809   -0.8705    2.6170 N   0  0  0  0  0  0  0  0  0  0  0  0
    1.8747    3.3457   -0.0730 B   0  0  0  0  0  0  0  0  0  0  0  0
    2.8690   -2.3199   -0.8130 N   0  0  0  0  0  0  0  0  0  0  0  0
  1  2  1  0  0  0  0
  2  3  1  0  0  0  0
  2  4  1  0  0  0  0
  4  5  4  0  0  0  0
  5  6  4  0  0  0  0
  6  7  4  0  0  0  0
  7  8  4  0  0  0  0
  4  9  4  0  0  0  0
  8  9  4  0  0  0  0
  7 10  1  0  0  0  0
 10 11  1  0  0  0  0
 11 12  4  0  0  0  0
 12 13  4  0  0  0  0
 13 14  1  0  0  0  0
 13 15  4  0  0  0  0
 15 16  4  0  0  0  0
 11 17  4  0  0  0  0
 16 17  4  0  0  0  0
 17 18  1  0  0  0  0
 18 19  1  0  0  0  0
 19 20  1  0  0  0  0
 20 21  2  0  0  0  0
 20 22  1  0  0  0  0
 22 23  1  0  0  0  0
 10 24  1  0  0  0  0
 19 24  1  0  0  0  0
 23 24  2  0  0  0  0
  2 25  1  0  0  0  0
  5 26  1  0  0  0  0
  6 27  1  0  0  0  0
  8 28  1  0  0  0  0
  9 29  1  0  0  0  0
 10 30  1  0  0  0  0
 12 31  1  0  0  0  0
 15 32  1  0  0  0  0
 16 33  1  0  0  0  0
 18 34  1  0  0  0  0
 19 35  1  0  0  0  0
 22 36  1  0  0  0  0
 44 45  1  0  0  0  0
 47 48  1  0  0  0  0
 43 50  1  0  0  0  0
 46 51  1  0  0  0  0
 50 53  1  0  0  0  0
 52 55  1  0  0  0  0
 54 56  1  0  0  0  0
 44 57  1  0  0  0  0
 47 58  1  0  0  0  0
 43 59  1  0  0  0  0
 56 60  1  0  0  0  0
 58 61  1  0  0  0  0
 42 63  1  0  0  0  0
 50 64  1  0  0  0  0
 59 64  1  0  0  0  0
 63 66  1  0  0  0  0
 40 67  1  0  0  0  0
 62 67  1  0  0  0  0
 64 69  1  0  0  0  0
 51 70  1  0  0  0  0
 57 71  1  0  0  0  0
 70 71  1  0  0  0  0
 52 72  1  0  0  0  0
 59 72  1  0  0  0  0
 55 73  1  0  0  0  0
 41 74  1  0  0  0  0
 48 75  1  0  0  0  0
 52 75  1  0  0  0  0
 43 76  1  0  0  0  0
 61 76  1  0  0  0  0
 75 76  1  0  0  0  0
 41 77  1  0  0  0  0
 74 77  1  0  0  0  0
 53 78  1  0  0  0  0
 60 78  1  0  0  0  0
 66 79  1  0  0  0  0
 68 79  1  0  0  0  0
 71 79  1  0  0  0  0
 63 80  1  0  0  0  0
 74 80  1  0  0  0  0
 57 81  1  0  0  0  0
 77 82  1  0  0  0  0
 37 83  1  0  0  0  0
 38 83  1  0  0  0  0
 62 83  1  0  0  0  0
 39 84  1  0  0  0  0
 73 84  1  0  0  0  0
 45 85  1  0  0  0  0
 49 85  1  0  0  0  0
 73 85  1  0  0  0  0
 47 86  1  0  0  0  0
 58 86  1  0  0  0  0
 45 87  1  0  0  0  0
 55 87  1  0  0  0  0
 48 88  1  0  0  0  0
 81 88  1  0  0  0  0
 87 88  1  0  0  0  0
 37 89  1  0  0  0  0
 82 89  1  0  0  0  0
 46 90  1  0  0  0  0
 82 90  1  0  0  0  0
 56 91  1  0  0  0  0
 65 92  1  0  0  0  0
 78 92  1  0  0  0  0
 66 93  1  0  0  0  0
 80 93  1  0  0  0  0
 68 94  1  0  0  0  0
 81 94  1  0  0  0  0
 86 94  1  0  0  0  0
 38 95  1  0  0  0  0
 39 95  1  0  0  0  0
 62 95  1  0  0  0  0
 38 96  1  0  0  0  0
 69 96  1  0  0  0  0
 91 96  1  0  0  0  0
 40 97  1  0  0  0  0
 51 97  1  0  0  0  0
 53 98  1  0  0  0  0
 61 98  1  0  0  0  0
 92 98  1  0  0  0  0
 40 99  1  0  0  0  0
 49 99  1  0  0  0  0
 84 99  1  0  0  0  0
 42100  1  0  0  0  0
 65100  1  0  0  0  0
 44101  1  0  0  0  0
 49101  1  0  0  0  0
 97101  1  0  0  0  0
 46102  1  0  0  0  0
 70102  1  0  0  0  0
 93102  1  0  0  0  0
 41103  1  0  0  0  0
 54103  1  0  0  0  0
 60104  1  0  0  0  0
 65104  1  0  0  0  0
103104  1  0  0  0  0
 42105  1  0  0  0  0
 68105  1  0  0  0  0
100105  1  0  0  0  0
 37106  1  0  0  0  0
 54106  1  0  0  0  0
 91106  1  0  0  0  0
 39107  1  0  0  0  0
 69107  1  0  0  0  0
 72107  1  0  0  0  0
 67108  1  0  0  0  0
 89108  1  0  0  0  0
 90108  1  0  0  0  0
M  END
