 xtb: 6.7.1pre (5071a88)
          08312618253D

108 89  0     0  0            999 V2000
    5.9669   -0.1114    0.3775 F   0  0  0  0  0  0  0  0  0  0  0  0
    5.0945    0.5134   -0.4619 C   0  0  0  0  0  0  0  0  0  0  0  0
    5.3615    1.8448   -0.3502 F   0  0  0  0  0  0  0  0  0  0  0  0
    3.6516    0.1738   -0.1789 C   0  0  0  0  0  0  0  0  0  0  0  0
    2.6310    1.0846   -0.4853 C   0  0  0  0  0  0  0  0  0  0  0  0
    1.2923    0.7634   -0.2441 C   0  0  0  0  0  0  0  0  0  0  0  0
    0.9420   -0.4762    0.3140 C   0  0  0  0  0  0  0  0  0  0  0  0
    1.9653   -1.3939    0.5999 C   0  0  0  0  0  0  0  0  0  0  0  0
    3.3032   -1.0732    0.3569 C   0  0  0  0  0  0  0  0  0  0  0  0
   -0.5077   -0.8793    0.5642 C   0  0  0  0  0  0  0  0  0  0  0  0
   -1.4127    0.2584    1.0347 C   0  0  0  0  0  0  0  0  0  0  0  0
   -1.1549    0.8685    2.2762 C   0  0  0  0  0  0  0  0  0  0  0  0
   -1.9828    1.8828    2.7393 C   0  0  0  0  0  0  0  0  0  0  0  0
   -1.7259    2.4559    3.9219 F   0  0  0  0  0  0  0  0  0  0  0  0
   -3.0798    2.2997    2.0006 C   0  0  0  0  0  0  0  0  0  0  0  0
   -3.3499    1.6977    0.7706 C   0  0  0  0  0  0  0  0  0  0  0  0
   -2.5103    0.6989    0.2557 C   0  0  0  0  0  0  0  0  0  0  0  0
   -2.8766    0.0664   -0.9413 N   0  0  0  0  0  0  0  0  0  0  0  0
   -1.8064   -0.6470   -1.6374 C   0  0  0  0  0  0  0  0  0  0  0  0
   -2.3066   -1.7003   -2.6006 C   0  0  0  0  0  0  0  0  0  0  0  0
   -3.0356   -1.5465   -3.5656 O   0  0  0  0  0  0  0  0  0  0  0  0
   -1.7425   -2.8906   -2.1481 N   0  0  0  0  0  0  0  0  0  0  0  0
   -1.0276   -2.7824   -0.9799 N   0  0  0  0  0  0  0  0  0  0  0  0
   -1.0806   -1.5198   -0.6612 C   0  0  0  0  0  0  0  0  0  0  0  0
    5.4702    0.1614   -1.7223 F   0  0  0  0  0  0  0  0  0  0  0  0
    2.8764    2.0559   -0.9138 H   0  0  0  0  0  0  0  0  0  0  0  0
    0.5307    1.5006   -0.4931 H   0  0  0  0  0  0  0  0  0  0  0  0
    1.7260   -2.3749    1.0092 H   0  0  0  0  0  0  0  0  0  0  0  0
    4.0760   -1.8058    0.5876 H   0  0  0  0  0  0  0  0  0  0  0  0
   -0.5313   -1.6404    1.3573 H   0  0  0  0  0  0  0  0  0  0  0  0
   -0.3152    0.5559    2.8913 H   0  0  0  0  0  0  0  0  0  0  0  0
   -3.7265    3.0793    2.3901 H   0  0  0  0  0  0  0  0  0  0  0  0
   -4.2306    2.0124    0.2154 H   0  0  0  0  0  0  0  0  0  0  0  0
   -3.4502    0.6326   -1.5632 H   0  0  0  0  0  0  0  0  0  0  0  0
   -1.1143    0.0307   -2.1466 H   0  0  0  0  0  0  0  0  0  0  0  0
   -1.9195   -3.7957   -2.5689 H   0  0  0  0  0  0  0  0  0  0  0  0
    2.1012    0.0000    3.3450 B   0  0  0  0  0  0  0  0  0  0  0  0
   -2.1012    0.0000    3.3450 B   0  0  0  0  0  0  0  0  0  0  0  0
    0.0000    2.1012    3.3450 B   0  0  0  0  0  0  0  0  0  0  0  0
    0.0000   -2.1012    3.3450 B   0  0  0  0  0  0  0  0  0  0  0  0
    3.3450    2.1012    0.0000 B   0  0  0  0  0  0  0  0  0  0  0  0
    3.3450   -2.1012    0.0000 B   0  0  0  0  0  0  0  0  0  0  0  0
    3.3450    0.0000    2.1012 B   0  0  0  0  0  0  0  0  0  0  0  0
    3.3450    0.0000   -2.1012 B   0  0  0  0  0  0  0  0  0  0  0  0
   -3.3450    2.1012    0.0000 B   0  0  0  0  0  0  0  0  0  0  0  0
   -3.3450   -2.1012    0.0000 B   0  0  0  0  0  0  0  0  0  0  0  0
   -3.3450    0.0000    2.1012 B   0  0  0  0  0  0  0  0  0  0  0  0
   -3.3450    0.0000   -2.1012 B   0  0  0  0  0  0  0  0  0  0  0  0
    2.1012    0.0000   -3.3450 B   0  0  0  0  0  0  0  0  0  0  0  0
   -2.1012    0.0000   -3.3450 B   0  0  0  0  0  0  0  0  0  0  0  0
    0.0000    2.1012   -3.3450 B   0  0  0  0  0  0  0  0  0  0  0  0
    0.0000   -2.1012   -3.3450 B   0  0  0  0  0  0  0  0  0  0  0  0
    0.0000    3.3450    2.1012 B   0  0  0  0  0  0  0  0  0  0  0  0
    0.0000    3.3450   -2.1012 B   0  0  0  0  0  0  0  0  0  0  0  0
    0.0000   -3.3450    2.1012 B   0  0  0  0  0  0  0  0  0  0  0  0
    0.0000   -3.3450   -2.1012 B   0  0  0  0  0  0  0  0  0  0  0  0
    2.1012    3.3450    0.0000 B   0  0  0  0  0  0  0  0  0  0  0  0
   -2.1012    3.3450    0.0000 B   0  0  0  0  0  0  0  0  0  0  0  0
    2.1012   -3.3450    0.0000 B   0  0  0  0  0  0  0  0  0  0  0  0
   -2.1012   -3.3450    0.0000 B   0  0  0  0  0  0  0  0  0  0  0  0
    1.4800    1.4800    3.5800 B   0  0  0  0  0  0  0  0  0  0  0  0
   -1.4800    1.4800    3.5800 B   0  0  0  0  0  0  0  0  0  0  0  0
    1.4800   -1.4800    3.5800 B   0  0  0  0  0  0  0  0  0  0  0  0
   -1.4800   -1.4800    3.5800 B   0  0  0  0  0  0  0  0  0  0  0  0
    3.5800    1.4800    1.4800 B   0  0  0  0  0  0  0  0  0  0  0  0
    3.5800   -1.4800    1.4800 B   0  0  0  0  0  0  0  0  0  0  0  0
    3.5800    1.4800   -1.4800 B   0  0  0  0  0  0  0  0  0  0  0  0
    3.5800   -1.4800   -1.4800 B   0  0  0  0  0  0  0  0  0  0  0  0
   -3.5800    1.4800    1.4800 B   0  0  0  0  0  0  0  0  0  0  0  0
   -3.5800   -1.4800    1.4800 B   0  0  0  0  0  0  0  0  0  0  0  0
   -3.5800    1.4800   -1.4800 B   0  0  0  0  0  0  0  0  0  0  0  0
   -3.5800   -1.4800   -1.4800 B   0  0  0  0  0  0  0  0  0  0  0  0
    2.1012    0.0000    3.9200 N   0  0  0  0  0  0  0  0  0  0  0  0
   -2.1012    0.0000    3.9200 N   0  0  0  0  0  0  0  0  0  0  0  0
    0.0000    2.1012    3.9200 N   0  0  0  0  0  0  0  0  0  0  0  0
    0.0000   -2.1012    3.9200 N   0  0  0  0  0  0  0  0  0  0  0  0
    3.9200    2.1012    0.0000 N   0  0  0  0  0  0  0  0  0  0  0  0
    3.9200   -2.1012    0.0000 N   0  0  0  0  0  0  0  0  0  0  0  0
    3.9200    0.0000    2.1012 N   0  0  0  0  0  0  0  0  0  0  0  0
    3.9200    0.0000   -2.1012 N   0  0  0  0  0  0  0  0  0  0  0  0
   -3.9200    2.1012    0.0000 N   0  0  0  0  0  0  0  0  0  0  0  0
   -3.9200   -2.1012    0.0000 N   0  0  0  0  0  0  0  0  0  0  0  0
   -3.9200    0.0000    2.1012 N   0  0  0  0  0  0  0  0  0  0  0  0
   -3.9200    0.0000   -2.1012 N   0  0  0  0  0  0  0  0  0  0  0  0
    2.1012    0.0000   -3.9200 N   0  0  0  0  0  0  0  0  0  0  0  0
   -2.1012    0.0000   -3.9200 N   0  0  0  0  0  0  0  0  0  0  0  0
    0.0000    2.1012   -3.9200 N   0  0  0  0  0  0  0  0  0  0  0  0
    0.0000   -2.1012   -3.9200 N   0  0  0  0  0  0  0  0  0  0  0  0
    0.0000    3.9200    2.1012 N   0  0  0  0  0  0  0  0  0  0  0  0
    0.0000    3.9200   -2.1012 N   0  0  0  0  0  0  0  0  0  0  0  0
    0.0000   -3.9200    2.1012 N   0  0  0  0  0  0  0  0  0  0  0  0
    0.0000   -3.9200   -2.1012 N   0  0  0  0  0  0  0  0  0  0  0  0
    2.1012    3.9200    0.0000 N   0  0  0  0  0  0  0  0  0  0  0  0
   -2.1012    3.9200    0.0000 N   0  0  0  0  0  0  0  0  0  0  0  0
    2.1012   -3.9200    0.0000 N   0  0  0  0  0  0  0  0  0  0  0  0
   -2.1012   -3.9200    0.0000 N   0  0  0  0  0  0  0  0  0  0  0  0
    1.4800    1.4800    4.2200 N   0  0  0  0  0  0  0  0  0  0  0  0
   -1.4800    1.4800    4.2200 N   0  0  0  0  0  0  0  0  0  0  0  0
    1.4800   -1.4800    4.2200 N   0  0  0  0  0  0  0  0  0  0  0  0
   -1.4800   -1.4800    4.2200 N   0  0  0  0  0  0  0  0  0  0  0  0
    4.2200    1.4800    1.4800 N   0  0  0  0  0  0  0  0  0  0  0  0
    4.2200   -1.4800    1.4800 N   0  0  0  0  0  0  0  0  0  0  0  0
    4.2200    1.4800   -1.4800 N   0  0  0  0  0  0  0  0  0  0  0  0
    4.2200   -1.4800   -1.4800 N   0  0  0  0  0  0  0  0  0  0  0  0
   -4.2200    1.4800    1.4800 N   0  0  0  0  0  0  0  0  0  0  0  0
   -4.2200   -1.4800    1.4800 N   0  0  0  0  0  0  0  0  0  0  0  0
   -4.2200    1.4800   -1.4800 N   0  0  0  0  0  0  0  0  0  0  0  0
   -4.2200   -1.4800   -1.4800 N   0  0  0  0  0  0  0  0  0  0  0  0
  1  2  1  0  0  0  0
  2  3  1  0  0  0  0
  2  4  1  0  0  0  0
  4  5  1  0  0  0  0
  5  6  4  0  0  0  0
  6  7  4  0  0  0  0
  7  8  1  0  0  0  0
  4  9  1  0  0  0  0
  8  9  1  0  0  0  0
  7 10  1  0  0  0  0
 10 11  1  0  0  0  0
 11 12  1  0  0  0  0
 12 13  1  0  0  0  0
 13 14  1  0  0  0  0
 13 15  1  0  0  0  0
 15 16  1  0  0  0  0
 11 17  1  0  0  0  0
 16 17  1  0  0  0  0
 17 18  1  0  0  0  0
 18 19  1  0  0  0  0
 19 20  1  0  0  0  0
 20 21  4  0  0  0  0
 20 22  1  0  0  0  0
 22 23  1  0  0  0  0
 10 24  1  0  0  0  0
 19 24  1  0  0  0  0
 23 24  4  0  0  0  0
  2 25  1  0  0  0  0
  5 26  1  0  0  0  0
  6 27  1  0  0  0  0
  8 28  1  0  0  0  0
 10 30  1  0  0  0  0
 12 31  1  0  0  0  0
 15 32  1  0  0  0  0
 19 35  1  0  0  0  0
 22 36  1  0  0  0  0
  5 41  1  0  0  0  0
  9 42  1  0  0  0  0
 16 45  1  0  0  0  0
 18 48  1  0  0  0  0
 12 62  1  0  0  0  0
 13 62  1  0  0  0  0
 14 62  1  0  0  0  0
  9 66  1  0  0  0  0
  5 67  1  0  0  0  0
 15 69  1  0  0  0  0
 16 69  1  0  0  0  0
 37 73  3  0  0  0  0
 38 74  3  0  0  0  0
 39 75  3  0  0  0  0
 40 76  3  0  0  0  0
 41 77  3  0  0  0  0
  9 78  1  0  0  0  0
 29 78  1  0  0  0  0
 42 78  3  0  0  0  0
 43 79  3  0  0  0  0
 44 80  3  0  0  0  0
 16 81  1  0  0  0  0
 33 81  1  0  0  0  0
 45 81  2  0  0  0  0
 46 82  3  0  0  0  0
 47 83  3  0  0  0  0
 48 84  3  0  0  0  0
 49 85  3  0  0  0  0
 50 86  3  0  0  0  0
 51 87  3  0  0  0  0
 52 88  3  0  0  0  0
 53 89  3  0  0  0  0
 54 90  3  0  0  0  0
 55 91  3  0  0  0  0
 56 92  3  0  0  0  0
 57 93  3  0  0  0  0
 58 94  3  0  0  0  0
 59 95  3  0  0  0  0
 60 96  3  0  0  0  0
 61 97  3  0  0  0  0
 14 98  1  0  0  0  0
 62 98  2  0  0  0  0
 63 99  3  0  0  0  0
 64100  3  0  0  0  0
 65101  3  0  0  0  0
 66102  3  0  0  0  0
 67103  3  0  0  0  0
 68104  3  0  0  0  0
 16105  1  0  0  0  0
 69105  2  0  0  0  0
 70106  3  0  0  0  0
 71107  3  0  0  0  0
 72108  3  0  0  0  0
M  END
