 xtb: 6.7.1pre (5071a88)
          08312621133D

108147  0     0  0            999 V2000
    5.9669   -0.1114   12.3825 F   0  0  0  0  0  0  0  0  0  0  0  0
    5.0945    0.5134   11.5432 C   0  0  0  0  0  0  0  0  0  0  0  0
    5.3615    1.8448   11.6549 F   0  0  0  0  0  0  0  0  0  0  0  0
    3.6516    0.1738   11.8262 C   0  0  0  0  0  0  0  0  0  0  0  0
    2.6310    1.0846   11.5198 C   0  0  0  0  0  0  0  0  0  0  0  0
    1.2923    0.7634   11.7610 C   0  0  0  0  0  0  0  0  0  0  0  0
    0.9420   -0.4762   12.3191 C   0  0  0  0  0  0  0  0  0  0  0  0
    1.9653   -1.3939   12.6050 C   0  0  0  0  0  0  0  0  0  0  0  0
    3.3032   -1.0732   12.3620 C   0  0  0  0  0  0  0  0  0  0  0  0
   -0.5077   -0.8793   12.5693 C   0  0  0  0  0  0  0  0  0  0  0  0
   -1.4127    0.2584   13.0398 C   0  0  0  0  0  0  0  0  0  0  0  0
   -1.1549    0.8685   14.2813 C   0  0  0  0  0  0  0  0  0  0  0  0
   -1.9828    1.8828   14.7444 C   0  0  0  0  0  0  0  0  0  0  0  0
   -1.7259    2.4559   15.9270 F   0  0  0  0  0  0  0  0  0  0  0  0
   -3.0798    2.2997   14.0057 C   0  0  0  0  0  0  0  0  0  0  0  0
   -3.3499    1.6977   12.7757 C   0  0  0  0  0  0  0  0  0  0  0  0
   -2.5103    0.6989   12.2608 C   0  0  0  0  0  0  0  0  0  0  0  0
   -2.8766    0.0664   11.0638 N   0  0  0  0  0  0  0  0  0  0  0  0
   -1.8064   -0.6470   10.3676 C   0  0  0  0  0  0  0  0  0  0  0  0
   -2.3066   -1.7003    9.4045 C   0  0  0  0  0  0  0  0  0  0  0  0
   -3.0356   -1.5465    8.4395 O   0  0  0  0  0  0  0  0  0  0  0  0
   -1.7425   -2.8906    9.8570 N   0  0  0  0  0  0  0  0  0  0  0  0
   -1.0276   -2.7824   11.0252 N   0  0  0  0  0  0  0  0  0  0  0  0
   -1.0806   -1.5198   11.3438 C   0  0  0  0  0  0  0  0  0  0  0  0
    5.4702    0.1614   10.2828 F   0  0  0  0  0  0  0  0  0  0  0  0
    2.8764    2.0559   11.0912 H   0  0  0  0  0  0  0  0  0  0  0  0
    0.5307    1.5006   11.5120 H   0  0  0  0  0  0  0  0  0  0  0  0
    1.7260   -2.3749   13.0143 H   0  0  0  0  0  0  0  0  0  0  0  0
    4.0760   -1.8058   12.5927 H   0  0  0  0  0  0  0  0  0  0  0  0
   -0.5313   -1.6404   13.3623 H   0  0  0  0  0  0  0  0  0  0  0  0
   -0.3152    0.5559   14.8964 H   0  0  0  0  0  0  0  0  0  0  0  0
   -3.7265    3.0793   14.3952 H   0  0  0  0  0  0  0  0  0  0  0  0
   -4.2306    2.0124   12.2205 H   0  0  0  0  0  0  0  0  0  0  0  0
   -3.4502    0.6326   10.4419 H   0  0  0  0  0  0  0  0  0  0  0  0
   -1.1143    0.0307    9.8585 H   0  0  0  0  0  0  0  0  0  0  0  0
   -1.9195   -3.7957    9.4362 H   0  0  0  0  0  0  0  0  0  0  0  0
    3.4592   -1.4546    1.6280 B   0  0  0  0  0  0  0  0  0  0  0  0
    3.4564    1.1299    0.9400 N   0  0  0  0  0  0  0  0  0  0  0  0
    2.5399    2.3625   -1.2610 B   0  0  0  0  0  0  0  0  0  0  0  0
    2.2931   -0.6416   -2.7306 N   0  0  0  0  0  0  0  0  0  0  0  0
    0.6905   -3.5611    2.7027 B   0  0  0  0  0  0  0  0  0  0  0  0
   -2.9397   -2.6548    1.7095 N   0  0  0  0  0  0  0  0  0  0  0  0
   -1.0382    4.0851    1.8312 B   0  0  0  0  0  0  0  0  0  0  0  0
   -0.6193    0.0177   -3.9419 N   0  0  0  0  0  0  0  0  0  0  0  0
   -0.4737    1.4453   -4.0917 B   0  0  0  0  0  0  0  0  0  0  0  0
    1.2096   -3.7868   -1.7394 N   0  0  0  0  0  0  0  0  0  0  0  0
   -3.8445    2.2094   -0.4937 B   0  0  0  0  0  0  0  0  0  0  0  0
   -2.7729    2.7636   -1.2118 N   0  0  0  0  0  0  0  0  0  0  0  0
    1.4057    0.8181   -4.8893 B   0  0  0  0  0  0  0  0  0  0  0  0
   -0.2358    3.3642    2.8335 N   0  0  0  0  0  0  0  0  0  0  0  0
    0.8983   -2.8798   -2.8138 B   0  0  0  0  0  0  0  0  0  0  0  0
   -0.4918    3.7666   -1.0101 N   0  0  0  0  0  0  0  0  0  0  0  0
   -0.8060    2.1823    3.2819 B   0  0  0  0  0  0  0  0  0  0  0  0
    1.6561   -1.2744    3.5036 N   0  0  0  0  0  0  0  0  0  0  0  0
   -0.2485    3.4699   -2.3799 B   0  0  0  0  0  0  0  0  0  0  0  0
    1.3087    0.0689    3.8170 N   0  0  0  0  0  0  0  0  0  0  0  0
   -1.5974   -0.5599   -3.0847 B   0  0  0  0  0  0  0  0  0  0  0  0
   -3.8325    1.7768    0.8316 N   0  0  0  0  0  0  0  0  0  0  0  0
    0.3376    4.4960    1.1839 B   0  0  0  0  0  0  0  0  0  0  0  0
    0.0433   -0.0140    4.4567 N   0  0  0  0  0  0  0  0  0  0  0  0
   -2.7088    2.2268    1.6012 B   0  0  0  0  0  0  0  0  0  0  0  0
    3.7727   -0.1326   -0.7655 N   0  0  0  0  0  0  0  0  0  0  0  0
   -2.2534   -3.6394    1.0085 B   0  0  0  0  0  0  0  0  0  0  0  0
    1.0558    3.7334    2.2357 N   0  0  0  0  0  0  0  0  0  0  0  0
   -1.8256   -0.7775    3.2198 B   0  0  0  0  0  0  0  0  0  0  0  0
   -2.4368   -3.6019   -0.4508 N   0  0  0  0  0  0  0  0  0  0  0  0
    3.0187   -1.0737   -1.5028 B   0  0  0  0  0  0  0  0  0  0  0  0
   -3.1580   -1.2526   -0.3843 N   0  0  0  0  0  0  0  0  0  0  0  0
    2.0347    2.9223    1.5617 B   0  0  0  0  0  0  0  0  0  0  0  0
   -0.5074   -2.9001   -2.4328 N   0  0  0  0  0  0  0  0  0  0  0  0
   -1.6735   -2.1129   -2.4916 B   0  0  0  0  0  0  0  0  0  0  0  0
    0.5901    3.9646   -0.1102 N   0  0  0  0  0  0  0  0  0  0  0  0
    1.0903    2.9596   -3.1825 B   0  0  0  0  0  0  0  0  0  0  0  0
    0.0774   -4.3592    1.7213 N   0  0  0  0  0  0  0  0  0  0  0  0
   -1.7840    3.4524   -0.4082 B   0  0  0  0  0  0  0  0  0  0  0  0
   -2.0135    3.4185    1.0316 N   0  0  0  0  0  0  0  0  0  0  0  0
    1.4659   -4.2121    1.4991 B   0  0  0  0  0  0  0  0  0  0  0  0
   -0.7980    1.0642    4.1946 N   0  0  0  0  0  0  0  0  0  0  0  0
   -2.6662   -2.4021   -1.1753 B   0  0  0  0  0  0  0  0  0  0  0  0
   -1.0744   -4.4843    0.9912 N   0  0  0  0  0  0  0  0  0  0  0  0
   -2.5037    0.4914   -2.1091 B   0  0  0  0  0  0  0  0  0  0  0  0
    2.3527   -3.8873    0.4531 N   0  0  0  0  0  0  0  0  0  0  0  0
    3.9123   -0.2024    0.7259 B   0  0  0  0  0  0  0  0  0  0  0  0
    1.9285    1.9570   -2.4651 N   0  0  0  0  0  0  0  0  0  0  0  0
    1.0012    2.2544   -4.6225 B   0  0  0  0  0  0  0  0  0  0  0  0
   -4.1860    0.8290   -0.3475 N   0  0  0  0  0  0  0  0  0  0  0  0
   -1.3389    2.4537   -3.1149 B   0  0  0  0  0  0  0  0  0  0  0  0
   -2.3596    1.9326   -2.3058 N   0  0  0  0  0  0  0  0  0  0  0  0
    3.0731   -2.6455    0.6011 B   0  0  0  0  0  0  0  0  0  0  0  0
    2.3352   -3.6737   -0.9709 N   0  0  0  0  0  0  0  0  0  0  0  0
    2.2179    0.5458    2.8084 B   0  0  0  0  0  0  0  0  0  0  0  0
   -2.0264    0.6119    3.6015 N   0  0  0  0  0  0  0  0  0  0  0  0
   -1.1017   -4.1838   -0.4410 B   0  0  0  0  0  0  0  0  0  0  0  0
   -3.2181    0.0417   -0.9586 N   0  0  0  0  0  0  0  0  0  0  0  0
    3.4478    1.2586   -0.5141 B   0  0  0  0  0  0  0  0  0  0  0  0
    2.5821    1.6330    1.9365 N   0  0  0  0  0  0  0  0  0  0  0  0
    1.4721   -1.5550   -3.5156 B   0  0  0  0  0  0  0  0  0  0  0  0
   -2.1026    1.7542    2.7608 N   0  0  0  0  0  0  0  0  0  0  0  0
    2.0408    0.7119   -3.2115 B   0  0  0  0  0  0  0  0  0  0  0  0
   -2.7209   -1.3417    2.3206 N   0  0  0  0  0  0  0  0  0  0  0  0
    0.6586   -0.5389   -4.4869 B   0  0  0  0  0  0  0  0  0  0  0  0
   -0.1687   -3.7594   -1.3565 N   0  0  0  0  0  0  0  0  0  0  0  0
    0.4856   -2.1056    3.4338 B   0  0  0  0  0  0  0  0  0  0  0  0
   -0.5873   -1.2050    3.8245 N   0  0  0  0  0  0  0  0  0  0  0  0
   -3.2244   -1.4514    1.0003 B   0  0  0  0  0  0  0  0  0  0  0  0
    2.6713   -0.8555    2.6211 N   0  0  0  0  0  0  0  0  0  0  0  0
    1.8786    3.3393   -0.1064 B   0  0  0  0  0  0  0  0  0  0  0  0
    2.8769   -2.3318   -0.7936 N   0  0  0  0  0  0  0  0  0  0  0  0
  1  2  1  0  0  0  0
  2  3  1  0  0  0  0
  2  4  1  0  0  0  0
  4  5  4  0  0  0  0
  5  6  4  0  0  0  0
  6  7  4  0  0  0  0
  7  8  4  0  0  0  0
  4  9  4  0  0  0  0
  8  9  4  0  0  0  0
  7 10  1  0  0  0  0
 10 11  1  0  0  0  0
 11 12  4  0  0  0  0
 12 13  4  0  0  0  0
 13 14  1  0  0  0  0
 13 15  4  0  0  0  0
 15 16  4  0  0  0  0
 11 17  4  0  0  0  0
 16 17  4  0  0  0  0
 17 18  1  0  0  0  0
 18 19  1  0  0  0  0
 19 20  1  0  0  0  0
 20 21  2  0  0  0  0
 20 22  1  0  0  0  0
 22 23  1  0  0  0  0
 10 24  1  0  0  0  0
 19 24  1  0  0  0  0
 23 24  2  0  0  0  0
  2 25  1  0  0  0  0
  5 26  1  0  0  0  0
  6 27  1  0  0  0  0
  8 28  1  0  0  0  0
  9 29  1  0  0  0  0
 10 30  1  0  0  0  0
 12 31  1  0  0  0  0
 15 32  1  0  0  0  0
 16 33  1  0  0  0  0
 18 34  1  0  0  0  0
 19 35  1  0  0  0  0
 22 36  1  0  0  0  0
 44 45  1  0  0  0  0
 47 48  1  0  0  0  0
 43 50  1  0  0  0  0
 46 51  1  0  0  0  0
 50 53  1  0  0  0  0
 52 55  1  0  0  0  0
 54 56  1  0  0  0  0
 44 57  1  0  0  0  0
 47 58  1  0  0  0  0
 43 59  1  0  0  0  0
 56 60  1  0  0  0  0
 58 61  1  0  0  0  0
 42 63  1  0  0  0  0
 50 64  1  0  0  0  0
 59 64  1  0  0  0  0
 63 66  1  0  0  0  0
 40 67  1  0  0  0  0
 62 67  1  0  0  0  0
 64 69  1  0  0  0  0
 51 70  1  0  0  0  0
 57 71  1  0  0  0  0
 70 71  1  0  0  0  0
 52 72  1  0  0  0  0
 59 72  1  0  0  0  0
 55 73  1  0  0  0  0
 41 74  1  0  0  0  0
 48 75  1  0  0  0  0
 52 75  1  0  0  0  0
 43 76  1  0  0  0  0
 61 76  1  0  0  0  0
 75 76  1  0  0  0  0
 41 77  1  0  0  0  0
 74 77  1  0  0  0  0
 53 78  1  0  0  0  0
 60 78  1  0  0  0  0
 66 79  1  0  0  0  0
 68 79  1  0  0  0  0
 71 79  1  0  0  0  0
 63 80  1  0  0  0  0
 74 80  1  0  0  0  0
 57 81  1  0  0  0  0
 77 82  1  0  0  0  0
 37 83  1  0  0  0  0
 38 83  1  0  0  0  0
 62 83  1  0  0  0  0
 39 84  1  0  0  0  0
 73 84  1  0  0  0  0
 45 85  1  0  0  0  0
 49 85  1  0  0  0  0
 73 85  1  0  0  0  0
 47 86  1  0  0  0  0
 58 86  1  0  0  0  0
 45 87  1  0  0  0  0
 55 87  1  0  0  0  0
 48 88  1  0  0  0  0
 81 88  1  0  0  0  0
 87 88  1  0  0  0  0
 37 89  1  0  0  0  0
 82 89  1  0  0  0  0
 46 90  1  0  0  0  0
 82 90  1  0  0  0  0
 56 91  1  0  0  0  0
 65 92  1  0  0  0  0
 78 92  1  0  0  0  0
 66 93  1  0  0  0  0
 80 93  1  0  0  0  0
 68 94  1  0  0  0  0
 81 94  1  0  0  0  0
 86 94  1  0  0  0  0
 38 95  1  0  0  0  0
 39 95  1  0  0  0  0
 62 95  1  0  0  0  0
 38 96  1  0  0  0  0
 69 96  1  0  0  0  0
 91 96  1  0  0  0  0
 40 97  1  0  0  0  0
 51 97  1  0  0  0  0
 53 98  1  0  0  0  0
 61 98  1  0  0  0  0
 92 98  1  0  0  0  0
 40 99  1  0  0  0  0
 49 99  1  0  0  0  0
 84 99  1  0  0  0  0
 42100  1  0  0  0  0
 65100  1  0  0  0  0
 44101  1  0  0  0  0
 49101  1  0  0  0  0
 97101  1  0  0  0  0
 46102  1  0  0  0  0
 70102  1  0  0  0  0
 93102  1  0  0  0  0
 41103  1  0  0  0  0
 54103  1  0  0  0  0
 60104  1  0  0  0  0
 65104  1  0  0  0  0
103104  1  0  0  0  0
 42105  1  0  0  0  0
 68105  1  0  0  0  0
100105  1  0  0  0  0
 37106  1  0  0  0  0
 54106  1  0  0  0  0
 91106  1  0  0  0  0
 39107  1  0  0  0  0
 69107  1  0  0  0  0
 72107  1  0  0  0  0
 67108  1  0  0  0  0
 89108  1  0  0  0  0
 90108  1  0  0  0  0
M  END
