 xtb: 6.7.1 (edcfbbe)
          09222622433D

 72108  0     0  0            999 V2000
    0.6576   -4.0925   -0.6576 B   0  0  0  0  0  0  0  0  0  0  0  0
    0.7805   -4.2763    0.7806 N   0  0  0  0  0  0  0  0  0  0  0  0
   -0.6576   -4.0925    0.6576 B   0  0  0  0  0  0  0  0  0  0  0  0
   -0.7806   -4.2763   -0.7805 N   0  0  0  0  0  0  0  0  0  0  0  0
   -4.2763   -0.7805   -0.7805 N   0  0  0  0  0  0  0  0  0  0  0  0
   -4.0925   -0.6576    0.6576 B   0  0  0  0  0  0  0  0  0  0  0  0
   -4.2763    0.7806    0.7806 N   0  0  0  0  0  0  0  0  0  0  0  0
   -4.0925    0.6576   -0.6576 B   0  0  0  0  0  0  0  0  0  0  0  0
   -1.4391   -3.1992   -1.4391 B   0  0  0  0  0  0  0  0  0  0  0  0
   -2.5366   -2.5366   -0.7493 N   0  0  0  0  0  0  0  0  0  0  0  0
   -3.1992   -1.4391   -1.4391 B   0  0  0  0  0  0  0  0  0  0  0  0
   -2.5366   -0.7493   -2.5366 N   0  0  0  0  0  0  0  0  0  0  0  0
   -1.4391   -1.4391   -3.1992 B   0  0  0  0  0  0  0  0  0  0  0  0
   -0.7493   -2.5366   -2.5366 N   0  0  0  0  0  0  0  0  0  0  0  0
    0.7805    0.7805   -4.2763 N   0  0  0  0  0  0  0  0  0  0  0  0
    0.6576   -0.6576   -4.0925 B   0  0  0  0  0  0  0  0  0  0  0  0
   -0.7806   -0.7806   -4.2763 N   0  0  0  0  0  0  0  0  0  0  0  0
   -0.6576    0.6576   -4.0925 B   0  0  0  0  0  0  0  0  0  0  0  0
   -2.4692   -0.7025    2.4692 B   0  0  0  0  0  0  0  0  0  0  0  0
   -3.1686   -1.4152    1.4152 N   0  0  0  0  0  0  0  0  0  0  0  0
   -2.4692   -2.4692    0.7025 B   0  0  0  0  0  0  0  0  0  0  0  0
   -1.4152   -3.1685    1.4152 N   0  0  0  0  0  0  0  0  0  0  0  0
   -0.7025   -2.4692    2.4692 B   0  0  0  0  0  0  0  0  0  0  0  0
   -1.4152   -1.4152    3.1686 N   0  0  0  0  0  0  0  0  0  0  0  0
    0.7806   -0.7806    4.2763 N   0  0  0  0  0  0  0  0  0  0  0  0
    0.6576    0.6576    4.0925 B   0  0  0  0  0  0  0  0  0  0  0  0
   -0.7805    0.7806    4.2763 N   0  0  0  0  0  0  0  0  0  0  0  0
   -0.6576   -0.6576    4.0925 B   0  0  0  0  0  0  0  0  0  0  0  0
   -1.4152    1.4152   -3.1686 N   0  0  0  0  0  0  0  0  0  0  0  0
   -2.4692    0.7025   -2.4692 B   0  0  0  0  0  0  0  0  0  0  0  0
   -3.1686    1.4152   -1.4152 N   0  0  0  0  0  0  0  0  0  0  0  0
   -2.4692    2.4692   -0.7025 B   0  0  0  0  0  0  0  0  0  0  0  0
   -1.4152    3.1686   -1.4152 N   0  0  0  0  0  0  0  0  0  0  0  0
   -0.7025    2.4692   -2.4692 B   0  0  0  0  0  0  0  0  0  0  0  0
    2.4692   -2.4692   -0.7025 B   0  0  0  0  0  0  0  0  0  0  0  0
    1.4152   -3.1686   -1.4152 N   0  0  0  0  0  0  0  0  0  0  0  0
    0.7025   -2.4692   -2.4692 B   0  0  0  0  0  0  0  0  0  0  0  0
    1.4152   -1.4152   -3.1686 N   0  0  0  0  0  0  0  0  0  0  0  0
    2.4692   -0.7025   -2.4692 B   0  0  0  0  0  0  0  0  0  0  0  0
    3.1685   -1.4152   -1.4152 N   0  0  0  0  0  0  0  0  0  0  0  0
   -2.5366    2.5366    0.7493 N   0  0  0  0  0  0  0  0  0  0  0  0
   -3.1992    1.4391    1.4391 B   0  0  0  0  0  0  0  0  0  0  0  0
   -2.5366    0.7493    2.5366 N   0  0  0  0  0  0  0  0  0  0  0  0
   -1.4391    1.4391    3.1992 B   0  0  0  0  0  0  0  0  0  0  0  0
   -0.7492    2.5366    2.5366 N   0  0  0  0  0  0  0  0  0  0  0  0
   -1.4391    3.1992    1.4391 B   0  0  0  0  0  0  0  0  0  0  0  0
    0.6576    4.0925    0.6576 B   0  0  0  0  0  0  0  0  0  0  0  0
    0.7806    4.2763   -0.7806 N   0  0  0  0  0  0  0  0  0  0  0  0
   -0.6576    4.0925   -0.6576 B   0  0  0  0  0  0  0  0  0  0  0  0
   -0.7805    4.2763    0.7806 N   0  0  0  0  0  0  0  0  0  0  0  0
    2.5366    0.7492   -2.5366 N   0  0  0  0  0  0  0  0  0  0  0  0
    1.4391    1.4391   -3.1992 B   0  0  0  0  0  0  0  0  0  0  0  0
    0.7493    2.5366   -2.5366 N   0  0  0  0  0  0  0  0  0  0  0  0
    1.4391    3.1992   -1.4391 B   0  0  0  0  0  0  0  0  0  0  0  0
    2.5366    2.5366   -0.7493 N   0  0  0  0  0  0  0  0  0  0  0  0
    3.1992    1.4391   -1.4391 B   0  0  0  0  0  0  0  0  0  0  0  0
    1.4391   -1.4391    3.1992 B   0  0  0  0  0  0  0  0  0  0  0  0
    0.7493   -2.5366    2.5366 N   0  0  0  0  0  0  0  0  0  0  0  0
    1.4391   -3.1992    1.4391 B   0  0  0  0  0  0  0  0  0  0  0  0
    2.5366   -2.5366    0.7493 N   0  0  0  0  0  0  0  0  0  0  0  0
    3.1992   -1.4391    1.4391 B   0  0  0  0  0  0  0  0  0  0  0  0
    2.5366   -0.7493    2.5366 N   0  0  0  0  0  0  0  0  0  0  0  0
    1.4152    3.1686    1.4152 N   0  0  0  0  0  0  0  0  0  0  0  0
    0.7025    2.4692    2.4692 B   0  0  0  0  0  0  0  0  0  0  0  0
    1.4152    1.4152    3.1686 N   0  0  0  0  0  0  0  0  0  0  0  0
    2.4692    0.7025    2.4692 B   0  0  0  0  0  0  0  0  0  0  0  0
    3.1686    1.4152    1.4152 N   0  0  0  0  0  0  0  0  0  0  0  0
    2.4692    2.4692    0.7025 B   0  0  0  0  0  0  0  0  0  0  0  0
    4.2763   -0.7806    0.7805 N   0  0  0  0  0  0  0  0  0  0  0  0
    4.0925   -0.6576   -0.6576 B   0  0  0  0  0  0  0  0  0  0  0  0
    4.2763    0.7805   -0.7806 N   0  0  0  0  0  0  0  0  0  0  0  0
    4.0925    0.6576    0.6576 B   0  0  0  0  0  0  0  0  0  0  0  0
  1  2  1  0  0  0  0
  2  3  1  0  0  0  0
  1  4  1  0  0  0  0
  3  4  1  0  0  0  0
  5  6  1  0  0  0  0
  6  7  1  0  0  0  0
  5  8  1  0  0  0  0
  7  8  1  0  0  0  0
  4  9  1  0  0  0  0
  9 10  1  0  0  0  0
  5 11  1  0  0  0  0
 10 11  1  0  0  0  0
 11 12  1  0  0  0  0
 12 13  1  0  0  0  0
  9 14  1  0  0  0  0
 13 14  1  0  0  0  0
 15 16  1  0  0  0  0
 13 17  1  0  0  0  0
 16 17  1  0  0  0  0
 15 18  1  0  0  0  0
 17 18  1  0  0  0  0
  6 20  1  0  0  0  0
 19 20  1  0  0  0  0
 10 21  1  0  0  0  0
 20 21  1  0  0  0  0
  3 22  1  0  0  0  0
 21 22  1  0  0  0  0
 22 23  1  0  0  0  0
 19 24  1  0  0  0  0
 23 24  1  0  0  0  0
 25 26  1  0  0  0  0
 26 27  1  0  0  0  0
 24 28  1  0  0  0  0
 25 28  1  0  0  0  0
 27 28  1  0  0  0  0
 18 29  1  0  0  0  0
 12 30  1  0  0  0  0
 29 30  1  0  0  0  0
  8 31  1  0  0  0  0
 30 31  1  0  0  0  0
 31 32  1  0  0  0  0
 32 33  1  0  0  0  0
 29 34  1  0  0  0  0
 33 34  1  0  0  0  0
  1 36  1  0  0  0  0
 35 36  1  0  0  0  0
 14 37  1  0  0  0  0
 36 37  1  0  0  0  0
 16 38  1  0  0  0  0
 37 38  1  0  0  0  0
 38 39  1  0  0  0  0
 35 40  1  0  0  0  0
 39 40  1  0  0  0  0
 32 41  1  0  0  0  0
  7 42  1  0  0  0  0
 41 42  1  0  0  0  0
 19 43  1  0  0  0  0
 42 43  1  0  0  0  0
 27 44  1  0  0  0  0
 43 44  1  0  0  0  0
 44 45  1  0  0  0  0
 41 46  1  0  0  0  0
 45 46  1  0  0  0  0
 47 48  1  0  0  0  0
 33 49  1  0  0  0  0
 48 49  1  0  0  0  0
 46 50  1  0  0  0  0
 47 50  1  0  0  0  0
 49 50  1  0  0  0  0
 39 51  1  0  0  0  0
 15 52  1  0  0  0  0
 51 52  1  0  0  0  0
 34 53  1  0  0  0  0
 52 53  1  0  0  0  0
 48 54  1  0  0  0  0
 53 54  1  0  0  0  0
 54 55  1  0  0  0  0
 51 56  1  0  0  0  0
 55 56  1  0  0  0  0
 25 57  1  0  0  0  0
 23 58  1  0  0  0  0
 57 58  1  0  0  0  0
  2 59  1  0  0  0  0
 58 59  1  0  0  0  0
 35 60  1  0  0  0  0
 59 60  1  0  0  0  0
 60 61  1  0  0  0  0
 57 62  1  0  0  0  0
 61 62  1  0  0  0  0
 47 63  1  0  0  0  0
 45 64  1  0  0  0  0
 63 64  1  0  0  0  0
 26 65  1  0  0  0  0
 64 65  1  0  0  0  0
 62 66  1  0  0  0  0
 65 66  1  0  0  0  0
 66 67  1  0  0  0  0
 55 68  1  0  0  0  0
 63 68  1  0  0  0  0
 67 68  1  0  0  0  0
 61 69  1  0  0  0  0
 40 70  1  0  0  0  0
 69 70  1  0  0  0  0
 56 71  1  0  0  0  0
 70 71  1  0  0  0  0
 67 72  1  0  0  0  0
 69 72  1  0  0  0  0
 71 72  1  0  0  0  0
M  END
