 xtb: 6.7.1pre (5071a88)
          08312621133D

118157  0     0  0            999 V2000
    6.2053    1.4362    9.7564 C   0  0  0  0  0  0  0  0  0  0  0  0
    6.3123    0.1485   10.4276 N   0  0  0  0  0  0  0  0  0  0  0  0
    5.4420    0.0500   11.6003 C   0  0  0  0  0  0  0  0  0  0  0  0
    3.9783   -0.0997   11.2565 C   0  0  0  0  0  0  0  0  0  0  0  0
    3.0982    0.9826   11.3896 C   0  0  0  0  0  0  0  0  0  0  0  0
    1.7466    0.8462   11.0577 C   0  0  0  0  0  0  0  0  0  0  0  0
    1.2510   -0.3758   10.5902 C   0  0  0  0  0  0  0  0  0  0  0  0
   -0.1527   -0.5277   10.2396 C   0  0  0  0  0  0  0  0  0  0  0  0
   -1.0618    0.4577    9.7098 C   0  0  0  0  0  0  0  0  0  0  0  0
   -2.3407   -0.0182    9.9562 C   0  0  0  0  0  0  0  0  0  0  0  0
   -2.1773   -1.3836   10.0986 N   0  0  0  0  0  0  0  0  0  0  0  0
   -0.9787   -1.5069   10.7748 C   0  0  0  0  0  0  0  0  0  0  0  0
   -0.9306   -2.3883   11.9847 C   0  0  0  0  0  0  0  0  0  0  0  0
   -1.4740   -1.6436   13.2456 C   0  0  0  0  0  0  0  0  0  0  0  0
   -2.3940   -0.5350   12.9629 N   0  0  0  0  0  0  0  0  0  0  0  0
   -3.6715   -0.7583   12.4836 C   0  0  0  0  0  0  0  0  0  0  0  0
   -4.3125   -1.7851   12.6678 O   0  0  0  0  0  0  0  0  0  0  0  0
   -4.2203    0.3012   11.5813 C   0  0  0  0  0  0  0  0  0  0  0  0
   -5.4231    0.9103   11.9587 C   0  0  0  0  0  0  0  0  0  0  0  0
   -5.9771    1.9060   11.1532 C   0  0  0  0  0  0  0  0  0  0  0  0
   -5.3354    2.2849    9.9726 C   0  0  0  0  0  0  0  0  0  0  0  0
   -4.1488    1.6604    9.5859 C   0  0  0  0  0  0  0  0  0  0  0  0
   -3.5696    2.0481    8.4395 F   0  0  0  0  0  0  0  0  0  0  0  0
   -3.5795    0.6495   10.3614 C   0  0  0  0  0  0  0  0  0  0  0  0
    2.1296   -1.4562   10.4496 C   0  0  0  0  0  0  0  0  0  0  0  0
    3.4808   -1.3206   10.7802 C   0  0  0  0  0  0  0  0  0  0  0  0
    6.4349    2.2611   10.4385 H   0  0  0  0  0  0  0  0  0  0  0  0
    5.2136    1.5942    9.3218 H   0  0  0  0  0  0  0  0  0  0  0  0
    6.9324    1.4772    8.9392 H   0  0  0  0  0  0  0  0  0  0  0  0
    6.0723   -0.5930    9.7715 H   0  0  0  0  0  0  0  0  0  0  0  0
    5.7466   -0.8303   12.1803 H   0  0  0  0  0  0  0  0  0  0  0  0
    5.5991    0.9032   12.2722 H   0  0  0  0  0  0  0  0  0  0  0  0
    3.4613    1.9428   11.7494 H   0  0  0  0  0  0  0  0  0  0  0  0
    1.0880    1.7025   11.1760 H   0  0  0  0  0  0  0  0  0  0  0  0
   -0.8046    1.4795    9.4596 H   0  0  0  0  0  0  0  0  0  0  0  0
   -2.9574   -2.0051   10.2719 H   0  0  0  0  0  0  0  0  0  0  0  0
   -1.5541   -3.2739   11.8062 H   0  0  0  0  0  0  0  0  0  0  0  0
    0.0809   -2.7579   12.1807 H   0  0  0  0  0  0  0  0  0  0  0  0
   -0.6319   -1.2008   13.7892 H   0  0  0  0  0  0  0  0  0  0  0  0
   -1.9683   -2.3576   13.9131 H   0  0  0  0  0  0  0  0  0  0  0  0
   -1.9347    0.3021   12.6228 H   0  0  0  0  0  0  0  0  0  0  0  0
   -5.9223    0.6102   12.8778 H   0  0  0  0  0  0  0  0  0  0  0  0
   -6.9086    2.3862   11.4448 H   0  0  0  0  0  0  0  0  0  0  0  0
   -5.7571    3.0617    9.3408 H   0  0  0  0  0  0  0  0  0  0  0  0
    1.7686   -2.4103   10.0719 H   0  0  0  0  0  0  0  0  0  0  0  0
    4.1447   -2.1742   10.6619 H   0  0  0  0  0  0  0  0  0  0  0  0
    3.4592   -1.4546    1.6280 B   0  0  0  0  0  0  0  0  0  0  0  0
    3.4564    1.1299    0.9400 N   0  0  0  0  0  0  0  0  0  0  0  0
    2.5399    2.3625   -1.2610 B   0  0  0  0  0  0  0  0  0  0  0  0
    2.2931   -0.6416   -2.7306 N   0  0  0  0  0  0  0  0  0  0  0  0
    0.6905   -3.5611    2.7027 B   0  0  0  0  0  0  0  0  0  0  0  0
   -2.9397   -2.6548    1.7095 N   0  0  0  0  0  0  0  0  0  0  0  0
   -1.0382    4.0851    1.8312 B   0  0  0  0  0  0  0  0  0  0  0  0
   -0.6193    0.0177   -3.9419 N   0  0  0  0  0  0  0  0  0  0  0  0
   -0.4737    1.4453   -4.0917 B   0  0  0  0  0  0  0  0  0  0  0  0
    1.2096   -3.7868   -1.7394 N   0  0  0  0  0  0  0  0  0  0  0  0
   -3.8445    2.2094   -0.4937 B   0  0  0  0  0  0  0  0  0  0  0  0
   -2.7729    2.7636   -1.2118 N   0  0  0  0  0  0  0  0  0  0  0  0
    1.4057    0.8181   -4.8893 B   0  0  0  0  0  0  0  0  0  0  0  0
   -0.2358    3.3642    2.8335 N   0  0  0  0  0  0  0  0  0  0  0  0
    0.8983   -2.8798   -2.8138 B   0  0  0  0  0  0  0  0  0  0  0  0
   -0.4918    3.7666   -1.0101 N   0  0  0  0  0  0  0  0  0  0  0  0
   -0.8060    2.1823    3.2819 B   0  0  0  0  0  0  0  0  0  0  0  0
    1.6561   -1.2744    3.5036 N   0  0  0  0  0  0  0  0  0  0  0  0
   -0.2485    3.4699   -2.3799 B   0  0  0  0  0  0  0  0  0  0  0  0
    1.3087    0.0689    3.8170 N   0  0  0  0  0  0  0  0  0  0  0  0
   -1.5974   -0.5599   -3.0847 B   0  0  0  0  0  0  0  0  0  0  0  0
   -3.8325    1.7768    0.8316 N   0  0  0  0  0  0  0  0  0  0  0  0
    0.3376    4.4960    1.1839 B   0  0  0  0  0  0  0  0  0  0  0  0
    0.0433   -0.0140    4.4567 N   0  0  0  0  0  0  0  0  0  0  0  0
   -2.7088    2.2268    1.6012 B   0  0  0  0  0  0  0  0  0  0  0  0
    3.7727   -0.1326   -0.7655 N   0  0  0  0  0  0  0  0  0  0  0  0
   -2.2534   -3.6394    1.0085 B   0  0  0  0  0  0  0  0  0  0  0  0
    1.0558    3.7334    2.2357 N   0  0  0  0  0  0  0  0  0  0  0  0
   -1.8256   -0.7775    3.2198 B   0  0  0  0  0  0  0  0  0  0  0  0
   -2.4368   -3.6019   -0.4508 N   0  0  0  0  0  0  0  0  0  0  0  0
    3.0187   -1.0737   -1.5028 B   0  0  0  0  0  0  0  0  0  0  0  0
   -3.1580   -1.2526   -0.3843 N   0  0  0  0  0  0  0  0  0  0  0  0
    2.0347    2.9223    1.5617 B   0  0  0  0  0  0  0  0  0  0  0  0
   -0.5074   -2.9001   -2.4328 N   0  0  0  0  0  0  0  0  0  0  0  0
   -1.6735   -2.1129   -2.4916 B   0  0  0  0  0  0  0  0  0  0  0  0
    0.5901    3.9646   -0.1102 N   0  0  0  0  0  0  0  0  0  0  0  0
    1.0903    2.9596   -3.1825 B   0  0  0  0  0  0  0  0  0  0  0  0
    0.0774   -4.3592    1.7213 N   0  0  0  0  0  0  0  0  0  0  0  0
   -1.7840    3.4524   -0.4082 B   0  0  0  0  0  0  0  0  0  0  0  0
   -2.0135    3.4185    1.0316 N   0  0  0  0  0  0  0  0  0  0  0  0
    1.4659   -4.2121    1.4991 B   0  0  0  0  0  0  0  0  0  0  0  0
   -0.7980    1.0642    4.1946 N   0  0  0  0  0  0  0  0  0  0  0  0
   -2.6662   -2.4021   -1.1753 B   0  0  0  0  0  0  0  0  0  0  0  0
   -1.0744   -4.4843    0.9912 N   0  0  0  0  0  0  0  0  0  0  0  0
   -2.5037    0.4914   -2.1091 B   0  0  0  0  0  0  0  0  0  0  0  0
    2.3527   -3.8873    0.4531 N   0  0  0  0  0  0  0  0  0  0  0  0
    3.9123   -0.2024    0.7259 B   0  0  0  0  0  0  0  0  0  0  0  0
    1.9285    1.9570   -2.4651 N   0  0  0  0  0  0  0  0  0  0  0  0
    1.0012    2.2544   -4.6225 B   0  0  0  0  0  0  0  0  0  0  0  0
   -4.1860    0.8290   -0.3475 N   0  0  0  0  0  0  0  0  0  0  0  0
   -1.3389    2.4537   -3.1149 B   0  0  0  0  0  0  0  0  0  0  0  0
   -2.3596    1.9326   -2.3058 N   0  0  0  0  0  0  0  0  0  0  0  0
    3.0731   -2.6455    0.6011 B   0  0  0  0  0  0  0  0  0  0  0  0
    2.3352   -3.6737   -0.9709 N   0  0  0  0  0  0  0  0  0  0  0  0
    2.2179    0.5458    2.8084 B   0  0  0  0  0  0  0  0  0  0  0  0
   -2.0264    0.6119    3.6015 N   0  0  0  0  0  0  0  0  0  0  0  0
   -1.1017   -4.1838   -0.4410 B   0  0  0  0  0  0  0  0  0  0  0  0
   -3.2181    0.0417   -0.9586 N   0  0  0  0  0  0  0  0  0  0  0  0
    3.4478    1.2586   -0.5141 B   0  0  0  0  0  0  0  0  0  0  0  0
    2.5821    1.6330    1.9365 N   0  0  0  0  0  0  0  0  0  0  0  0
    1.4721   -1.5550   -3.5156 B   0  0  0  0  0  0  0  0  0  0  0  0
   -2.1026    1.7542    2.7608 N   0  0  0  0  0  0  0  0  0  0  0  0
    2.0408    0.7119   -3.2115 B   0  0  0  0  0  0  0  0  0  0  0  0
   -2.7209   -1.3417    2.3206 N   0  0  0  0  0  0  0  0  0  0  0  0
    0.6586   -0.5389   -4.4869 B   0  0  0  0  0  0  0  0  0  0  0  0
   -0.1687   -3.7594   -1.3565 N   0  0  0  0  0  0  0  0  0  0  0  0
    0.4856   -2.1056    3.4338 B   0  0  0  0  0  0  0  0  0  0  0  0
   -0.5873   -1.2050    3.8245 N   0  0  0  0  0  0  0  0  0  0  0  0
   -3.2244   -1.4514    1.0003 B   0  0  0  0  0  0  0  0  0  0  0  0
    2.6713   -0.8555    2.6211 N   0  0  0  0  0  0  0  0  0  0  0  0
    1.8786    3.3393   -0.1064 B   0  0  0  0  0  0  0  0  0  0  0  0
    2.8769   -2.3318   -0.7936 N   0  0  0  0  0  0  0  0  0  0  0  0
  1  2  1  0  0  0  0
  2  3  1  0  0  0  0
  3  4  1  0  0  0  0
  4  5  4  0  0  0  0
  5  6  4  0  0  0  0
  6  7  4  0  0  0  0
  7  8  1  0  0  0  0
  8  9  4  0  0  0  0
  9 10  2  0  0  0  0
 10 11  1  0  0  0  0
  8 12  2  0  0  0  0
 11 12  1  0  0  0  0
 12 13  1  0  0  0  0
 13 14  1  0  0  0  0
 14 15  1  0  0  0  0
 15 16  4  0  0  0  0
 16 17  2  0  0  0  0
 16 18  1  0  0  0  0
 18 19  4  0  0  0  0
 19 20  4  0  0  0  0
 20 21  4  0  0  0  0
 21 22  4  0  0  0  0
 22 23  1  0  0  0  0
 10 24  1  0  0  0  0
 18 24  4  0  0  0  0
 22 24  4  0  0  0  0
  7 25  4  0  0  0  0
  4 26  4  0  0  0  0
 25 26  4  0  0  0  0
  1 27  1  0  0  0  0
  1 28  1  0  0  0  0
  1 29  1  0  0  0  0
  2 30  1  0  0  0  0
  3 31  1  0  0  0  0
  3 32  1  0  0  0  0
  5 33  1  0  0  0  0
  6 34  1  0  0  0  0
  9 35  1  0  0  0  0
 11 36  1  0  0  0  0
 13 37  1  0  0  0  0
 13 38  1  0  0  0  0
 14 39  1  0  0  0  0
 14 40  1  0  0  0  0
 15 41  1  0  0  0  0
 19 42  1  0  0  0  0
 20 43  1  0  0  0  0
 21 44  1  0  0  0  0
 25 45  1  0  0  0  0
 26 46  1  0  0  0  0
 54 55  1  0  0  0  0
 57 58  1  0  0  0  0
 53 60  1  0  0  0  0
 56 61  1  0  0  0  0
 60 63  1  0  0  0  0
 62 65  1  0  0  0  0
 64 66  1  0  0  0  0
 54 67  1  0  0  0  0
 57 68  1  0  0  0  0
 53 69  1  0  0  0  0
 66 70  1  0  0  0  0
 68 71  1  0  0  0  0
 52 73  1  0  0  0  0
 60 74  1  0  0  0  0
 69 74  1  0  0  0  0
 73 76  1  0  0  0  0
 50 77  1  0  0  0  0
 72 77  1  0  0  0  0
 74 79  1  0  0  0  0
 61 80  1  0  0  0  0
 67 81  1  0  0  0  0
 80 81  1  0  0  0  0
 62 82  1  0  0  0  0
 69 82  1  0  0  0  0
 65 83  1  0  0  0  0
 51 84  1  0  0  0  0
 58 85  1  0  0  0  0
 62 85  1  0  0  0  0
 53 86  1  0  0  0  0
 71 86  1  0  0  0  0
 85 86  1  0  0  0  0
 51 87  1  0  0  0  0
 84 87  1  0  0  0  0
 63 88  1  0  0  0  0
 70 88  1  0  0  0  0
 76 89  1  0  0  0  0
 78 89  1  0  0  0  0
 81 89  1  0  0  0  0
 73 90  1  0  0  0  0
 84 90  1  0  0  0  0
 67 91  1  0  0  0  0
 87 92  1  0  0  0  0
 47 93  1  0  0  0  0
 48 93  1  0  0  0  0
 72 93  1  0  0  0  0
 49 94  1  0  0  0  0
 83 94  1  0  0  0  0
 55 95  1  0  0  0  0
 59 95  1  0  0  0  0
 83 95  1  0  0  0  0
 57 96  1  0  0  0  0
 68 96  1  0  0  0  0
 55 97  1  0  0  0  0
 65 97  1  0  0  0  0
 58 98  1  0  0  0  0
 91 98  1  0  0  0  0
 97 98  1  0  0  0  0
 47 99  1  0  0  0  0
 92 99  1  0  0  0  0
 56100  1  0  0  0  0
 92100  1  0  0  0  0
 66101  1  0  0  0  0
 75102  1  0  0  0  0
 88102  1  0  0  0  0
 76103  1  0  0  0  0
 90103  1  0  0  0  0
 78104  1  0  0  0  0
 91104  1  0  0  0  0
 96104  1  0  0  0  0
 48105  1  0  0  0  0
 49105  1  0  0  0  0
 72105  1  0  0  0  0
 48106  1  0  0  0  0
 79106  1  0  0  0  0
101106  1  0  0  0  0
 50107  1  0  0  0  0
 61107  1  0  0  0  0
 63108  1  0  0  0  0
 71108  1  0  0  0  0
102108  1  0  0  0  0
 50109  1  0  0  0  0
 59109  1  0  0  0  0
 94109  1  0  0  0  0
 52110  1  0  0  0  0
 75110  1  0  0  0  0
 54111  1  0  0  0  0
 59111  1  0  0  0  0
107111  1  0  0  0  0
 56112  1  0  0  0  0
 80112  1  0  0  0  0
103112  1  0  0  0  0
 51113  1  0  0  0  0
 64113  1  0  0  0  0
 70114  1  0  0  0  0
 75114  1  0  0  0  0
113114  1  0  0  0  0
 52115  1  0  0  0  0
 78115  1  0  0  0  0
110115  1  0  0  0  0
 47116  1  0  0  0  0
 64116  1  0  0  0  0
101116  1  0  0  0  0
 49117  1  0  0  0  0
 79117  1  0  0  0  0
 82117  1  0  0  0  0
 77118  1  0  0  0  0
 99118  1  0  0  0  0
100118  1  0  0  0  0
M  END
