 xtb: 6.7.1pre (5071a88)
          08312618253D

118 99  0     0  0            999 V2000
    6.2053    1.5285   -1.3039 C   0  0  0  0  0  0  0  0  0  0  0  0
    6.3123    0.2409   -0.6327 N   0  0  0  0  0  0  0  0  0  0  0  0
    5.4420    0.1423    0.5400 C   0  0  0  0  0  0  0  0  0  0  0  0
    3.9783   -0.0073    0.1962 C   0  0  0  0  0  0  0  0  0  0  0  0
    3.0982    1.0749    0.3293 C   0  0  0  0  0  0  0  0  0  0  0  0
    1.7466    0.9385   -0.0026 C   0  0  0  0  0  0  0  0  0  0  0  0
    1.2510   -0.2835   -0.4701 C   0  0  0  0  0  0  0  0  0  0  0  0
   -0.1527   -0.4354   -0.8207 C   0  0  0  0  0  0  0  0  0  0  0  0
   -1.0618    0.5500   -1.3505 C   0  0  0  0  0  0  0  0  0  0  0  0
   -2.3407    0.0741   -1.1041 C   0  0  0  0  0  0  0  0  0  0  0  0
   -2.1773   -1.2913   -0.9617 N   0  0  0  0  0  0  0  0  0  0  0  0
   -0.9787   -1.4146   -0.2855 C   0  0  0  0  0  0  0  0  0  0  0  0
   -0.9306   -2.2960    0.9244 C   0  0  0  0  0  0  0  0  0  0  0  0
   -1.4740   -1.5513    2.1853 C   0  0  0  0  0  0  0  0  0  0  0  0
   -2.3940   -0.4427    1.9026 N   0  0  0  0  0  0  0  0  0  0  0  0
   -3.6715   -0.6660    1.4233 C   0  0  0  0  0  0  0  0  0  0  0  0
   -4.3125   -1.6927    1.6075 O   0  0  0  0  0  0  0  0  0  0  0  0
   -4.2203    0.3935    0.5210 C   0  0  0  0  0  0  0  0  0  0  0  0
   -5.4231    1.0026    0.8984 C   0  0  0  0  0  0  0  0  0  0  0  0
   -5.9771    1.9983    0.0929 C   0  0  0  0  0  0  0  0  0  0  0  0
   -5.3354    2.3772   -1.0877 C   0  0  0  0  0  0  0  0  0  0  0  0
   -4.1488    1.7527   -1.4744 C   0  0  0  0  0  0  0  0  0  0  0  0
   -3.5696    2.1404   -2.6208 F   0  0  0  0  0  0  0  0  0  0  0  0
   -3.5795    0.7418   -0.6989 C   0  0  0  0  0  0  0  0  0  0  0  0
    2.1296   -1.3639   -0.6107 C   0  0  0  0  0  0  0  0  0  0  0  0
    3.4808   -1.2282   -0.2801 C   0  0  0  0  0  0  0  0  0  0  0  0
    6.4349    2.3535   -0.6218 H   0  0  0  0  0  0  0  0  0  0  0  0
    5.2136    1.6865   -1.7385 H   0  0  0  0  0  0  0  0  0  0  0  0
    6.9324    1.5695   -2.1211 H   0  0  0  0  0  0  0  0  0  0  0  0
    6.0723   -0.5007   -1.2888 H   0  0  0  0  0  0  0  0  0  0  0  0
    5.7466   -0.7380    1.1200 H   0  0  0  0  0  0  0  0  0  0  0  0
    5.5991    0.9956    1.2119 H   0  0  0  0  0  0  0  0  0  0  0  0
    3.4613    2.0352    0.6891 H   0  0  0  0  0  0  0  0  0  0  0  0
    1.0880    1.7948    0.1157 H   0  0  0  0  0  0  0  0  0  0  0  0
   -0.8046    1.5719   -1.6007 H   0  0  0  0  0  0  0  0  0  0  0  0
   -2.9574   -1.9128   -0.7884 H   0  0  0  0  0  0  0  0  0  0  0  0
   -1.5541   -3.1816    0.7459 H   0  0  0  0  0  0  0  0  0  0  0  0
    0.0809   -2.6656    1.1203 H   0  0  0  0  0  0  0  0  0  0  0  0
   -0.6319   -1.1085    2.7289 H   0  0  0  0  0  0  0  0  0  0  0  0
   -1.9683   -2.2653    2.8528 H   0  0  0  0  0  0  0  0  0  0  0  0
   -1.9347    0.3944    1.5625 H   0  0  0  0  0  0  0  0  0  0  0  0
   -5.9223    0.7025    1.8175 H   0  0  0  0  0  0  0  0  0  0  0  0
   -6.9086    2.4785    0.3845 H   0  0  0  0  0  0  0  0  0  0  0  0
   -5.7571    3.1540   -1.7195 H   0  0  0  0  0  0  0  0  0  0  0  0
    1.7686   -2.3179   -0.9884 H   0  0  0  0  0  0  0  0  0  0  0  0
    4.1447   -2.0819   -0.3984 H   0  0  0  0  0  0  0  0  0  0  0  0
    2.1012    0.0000    3.3450 B   0  0  0  0  0  0  0  0  0  0  0  0
   -2.1012    0.0000    3.3450 B   0  0  0  0  0  0  0  0  0  0  0  0
    0.0000    2.1012    3.3450 B   0  0  0  0  0  0  0  0  0  0  0  0
    0.0000   -2.1012    3.3450 B   0  0  0  0  0  0  0  0  0  0  0  0
    3.3450    2.1012    0.0000 B   0  0  0  0  0  0  0  0  0  0  0  0
    3.3450   -2.1012    0.0000 B   0  0  0  0  0  0  0  0  0  0  0  0
    3.3450    0.0000    2.1012 B   0  0  0  0  0  0  0  0  0  0  0  0
    3.3450    0.0000   -2.1012 B   0  0  0  0  0  0  0  0  0  0  0  0
   -3.3450    2.1012    0.0000 B   0  0  0  0  0  0  0  0  0  0  0  0
   -3.3450   -2.1012    0.0000 B   0  0  0  0  0  0  0  0  0  0  0  0
   -3.3450    0.0000    2.1012 B   0  0  0  0  0  0  0  0  0  0  0  0
   -3.3450    0.0000   -2.1012 B   0  0  0  0  0  0  0  0  0  0  0  0
    2.1012    0.0000   -3.3450 B   0  0  0  0  0  0  0  0  0  0  0  0
   -2.1012    0.0000   -3.3450 B   0  0  0  0  0  0  0  0  0  0  0  0
    0.0000    2.1012   -3.3450 B   0  0  0  0  0  0  0  0  0  0  0  0
    0.0000   -2.1012   -3.3450 B   0  0  0  0  0  0  0  0  0  0  0  0
    0.0000    3.3450    2.1012 B   0  0  0  0  0  0  0  0  0  0  0  0
    0.0000    3.3450   -2.1012 B   0  0  0  0  0  0  0  0  0  0  0  0
    0.0000   -3.3450    2.1012 B   0  0  0  0  0  0  0  0  0  0  0  0
    0.0000   -3.3450   -2.1012 B   0  0  0  0  0  0  0  0  0  0  0  0
    2.1012    3.3450    0.0000 B   0  0  0  0  0  0  0  0  0  0  0  0
   -2.1012    3.3450    0.0000 B   0  0  0  0  0  0  0  0  0  0  0  0
    2.1012   -3.3450    0.0000 B   0  0  0  0  0  0  0  0  0  0  0  0
   -2.1012   -3.3450    0.0000 B   0  0  0  0  0  0  0  0  0  0  0  0
    1.4800    1.4800    3.5800 B   0  0  0  0  0  0  0  0  0  0  0  0
   -1.4800    1.4800    3.5800 B   0  0  0  0  0  0  0  0  0  0  0  0
    1.4800   -1.4800    3.5800 B   0  0  0  0  0  0  0  0  0  0  0  0
   -1.4800   -1.4800    3.5800 B   0  0  0  0  0  0  0  0  0  0  0  0
    3.5800    1.4800    1.4800 B   0  0  0  0  0  0  0  0  0  0  0  0
    3.5800   -1.4800    1.4800 B   0  0  0  0  0  0  0  0  0  0  0  0
    3.5800    1.4800   -1.4800 B   0  0  0  0  0  0  0  0  0  0  0  0
    3.5800   -1.4800   -1.4800 B   0  0  0  0  0  0  0  0  0  0  0  0
   -3.5800    1.4800    1.4800 B   0  0  0  0  0  0  0  0  0  0  0  0
   -3.5800   -1.4800    1.4800 B   0  0  0  0  0  0  0  0  0  0  0  0
   -3.5800    1.4800   -1.4800 B   0  0  0  0  0  0  0  0  0  0  0  0
   -3.5800   -1.4800   -1.4800 B   0  0  0  0  0  0  0  0  0  0  0  0
    2.1012    0.0000    3.9200 N   0  0  0  0  0  0  0  0  0  0  0  0
   -2.1012    0.0000    3.9200 N   0  0  0  0  0  0  0  0  0  0  0  0
    0.0000    2.1012    3.9200 N   0  0  0  0  0  0  0  0  0  0  0  0
    0.0000   -2.1012    3.9200 N   0  0  0  0  0  0  0  0  0  0  0  0
    3.9200    2.1012    0.0000 N   0  0  0  0  0  0  0  0  0  0  0  0
    3.9200   -2.1012    0.0000 N   0  0  0  0  0  0  0  0  0  0  0  0
    3.9200    0.0000    2.1012 N   0  0  0  0  0  0  0  0  0  0  0  0
    3.9200    0.0000   -2.1012 N   0  0  0  0  0  0  0  0  0  0  0  0
   -3.9200    2.1012    0.0000 N   0  0  0  0  0  0  0  0  0  0  0  0
   -3.9200   -2.1012    0.0000 N   0  0  0  0  0  0  0  0  0  0  0  0
   -3.9200    0.0000    2.1012 N   0  0  0  0  0  0  0  0  0  0  0  0
   -3.9200    0.0000   -2.1012 N   0  0  0  0  0  0  0  0  0  0  0  0
    2.1012    0.0000   -3.9200 N   0  0  0  0  0  0  0  0  0  0  0  0
   -2.1012    0.0000   -3.9200 N   0  0  0  0  0  0  0  0  0  0  0  0
    0.0000    2.1012   -3.9200 N   0  0  0  0  0  0  0  0  0  0  0  0
    0.0000   -2.1012   -3.9200 N   0  0  0  0  0  0  0  0  0  0  0  0
    0.0000    3.9200    2.1012 N   0  0  0  0  0  0  0  0  0  0  0  0
    0.0000    3.9200   -2.1012 N   0  0  0  0  0  0  0  0  0  0  0  0
    0.0000   -3.9200    2.1012 N   0  0  0  0  0  0  0  0  0  0  0  0
    0.0000   -3.9200   -2.1012 N   0  0  0  0  0  0  0  0  0  0  0  0
    2.1012    3.9200    0.0000 N   0  0  0  0  0  0  0  0  0  0  0  0
   -2.1012    3.9200    0.0000 N   0  0  0  0  0  0  0  0  0  0  0  0
    2.1012   -3.9200    0.0000 N   0  0  0  0  0  0  0  0  0  0  0  0
   -2.1012   -3.9200    0.0000 N   0  0  0  0  0  0  0  0  0  0  0  0
    1.4800    1.4800    4.2200 N   0  0  0  0  0  0  0  0  0  0  0  0
   -1.4800    1.4800    4.2200 N   0  0  0  0  0  0  0  0  0  0  0  0
    1.4800   -1.4800    4.2200 N   0  0  0  0  0  0  0  0  0  0  0  0
   -1.4800   -1.4800    4.2200 N   0  0  0  0  0  0  0  0  0  0  0  0
    4.2200    1.4800    1.4800 N   0  0  0  0  0  0  0  0  0  0  0  0
    4.2200   -1.4800    1.4800 N   0  0  0  0  0  0  0  0  0  0  0  0
    4.2200    1.4800   -1.4800 N   0  0  0  0  0  0  0  0  0  0  0  0
    4.2200   -1.4800   -1.4800 N   0  0  0  0  0  0  0  0  0  0  0  0
   -4.2200    1.4800    1.4800 N   0  0  0  0  0  0  0  0  0  0  0  0
   -4.2200   -1.4800    1.4800 N   0  0  0  0  0  0  0  0  0  0  0  0
   -4.2200    1.4800   -1.4800 N   0  0  0  0  0  0  0  0  0  0  0  0
   -4.2200   -1.4800   -1.4800 N   0  0  0  0  0  0  0  0  0  0  0  0
  1  2  1  0  0  0  0
  2  3  1  0  0  0  0
  3  4  1  0  0  0  0
  4  5  1  0  0  0  0
  5  6  1  0  0  0  0
  6  7  1  0  0  0  0
  7  8  1  0  0  0  0
  8  9  4  0  0  0  0
  9 10  1  0  0  0  0
 10 11  1  0  0  0  0
  8 12  4  0  0  0  0
 11 12  1  0  0  0  0
 12 13  1  0  0  0  0
 13 14  1  0  0  0  0
 14 15  1  0  0  0  0
 15 16  1  0  0  0  0
 16 18  1  0  0  0  0
 18 19  1  0  0  0  0
 19 20  1  0  0  0  0
 20 21  1  0  0  0  0
 10 24  1  0  0  0  0
 18 24  1  0  0  0  0
  7 25  1  0  0  0  0
  4 26  1  0  0  0  0
 25 26  1  0  0  0  0
  1 27  1  0  0  0  0
  1 28  1  0  0  0  0
  1 29  1  0  0  0  0
  2 30  1  0  0  0  0
  3 31  1  0  0  0  0
  3 32  1  0  0  0  0
  6 34  1  0  0  0  0
  9 35  1  0  0  0  0
 11 36  1  0  0  0  0
 13 37  1  0  0  0  0
 13 38  1  0  0  0  0
 14 39  1  0  0  0  0
 14 40  1  0  0  0  0
 15 41  1  0  0  0  0
 19 42  1  0  0  0  0
 20 43  1  0  0  0  0
 21 44  1  0  0  0  0
 25 45  1  0  0  0  0
  5 51  1  0  0  0  0
 25 52  1  0  0  0  0
 26 52  1  0  0  0  0
 15 57  1  0  0  0  0
 10 58  1  0  0  0  0
 14 74  1  0  0  0  0
  5 75  1  0  0  0  0
 16 80  1  0  0  0  0
 22 81  1  0  0  0  0
 23 81  1  0  0  0  0
 24 81  1  0  0  0  0
 11 82  1  0  0  0  0
 47 83  3  0  0  0  0
 48 84  3  0  0  0  0
 49 85  3  0  0  0  0
 50 86  3  0  0  0  0
  5 87  1  0  0  0  0
 51 87  3  0  0  0  0
 26 88  1  0  0  0  0
 46 88  1  0  0  0  0
 52 88  2  0  0  0  0
 53 89  3  0  0  0  0
 54 90  3  0  0  0  0
 55 91  3  0  0  0  0
 56 92  3  0  0  0  0
 16 93  1  0  0  0  0
 57 93  2  0  0  0  0
 58 94  3  0  0  0  0
 59 95  3  0  0  0  0
 60 96  3  0  0  0  0
 61 97  3  0  0  0  0
 62 98  3  0  0  0  0
 63 99  3  0  0  0  0
 64100  3  0  0  0  0
 65101  3  0  0  0  0
 66102  3  0  0  0  0
 67103  3  0  0  0  0
 68104  3  0  0  0  0
 69105  3  0  0  0  0
 70106  3  0  0  0  0
 71107  3  0  0  0  0
 72108  3  0  0  0  0
 73109  3  0  0  0  0
 74110  3  0  0  0  0
 75111  3  0  0  0  0
 76112  3  0  0  0  0
 77113  3  0  0  0  0
 26114  1  0  0  0  0
 78114  3  0  0  0  0
 18115  1  0  0  0  0
 19115  1  0  0  0  0
 79115  2  0  0  0  0
 17116  3  0  0  0  0
 22117  3  0  0  0  0
 81117  1  0  0  0  0
 82118  3  0  0  0  0
M  END
