 xtb: 6.7.1pre (5071a88)
          08312622233D

118157  0     0  0            999 V2000
    1.4089   -6.0096    8.8031 C   0  0  0  0  0  0  0  0  0  0  0  0
    0.1883   -6.2615    9.5438 N   0  0  0  0  0  0  0  0  0  0  0  0
    0.0670   -5.4656   10.7599 C   0  0  0  0  0  0  0  0  0  0  0  0
   -0.0686   -3.9870   10.4956 C   0  0  0  0  0  0  0  0  0  0  0  0
    1.0335   -3.1422   10.5409 C   0  0  0  0  0  0  0  0  0  0  0  0
    0.9113   -1.8013   10.2317 C   0  0  0  0  0  0  0  0  0  0  0  0
   -0.3224   -1.2652    9.8683 C   0  0  0  0  0  0  0  0  0  0  0  0
   -0.4697    0.1570    9.5998 C   0  0  0  0  0  0  0  0  0  0  0  0
    0.5167    1.0282    9.0696 C   0  0  0  0  0  0  0  0  0  0  0  0
    0.0009    2.3101    9.0915 C   0  0  0  0  0  0  0  0  0  0  0  0
   -1.2992    2.2035    9.4977 N   0  0  0  0  0  0  0  0  0  0  0  0
   -1.5769    0.9385    9.9122 C   0  0  0  0  0  0  0  0  0  0  0  0
   -2.5310    0.8615   11.0533 C   0  0  0  0  0  0  0  0  0  0  0  0
   -1.8395    1.5497   12.2965 C   0  0  0  0  0  0  0  0  0  0  0  0
   -0.6751    2.3605   11.9780 N   0  0  0  0  0  0  0  0  0  0  0  0
   -0.8018    3.6346   11.4987 C   0  0  0  0  0  0  0  0  0  0  0  0
   -1.7701    4.3281   11.7411 O   0  0  0  0  0  0  0  0  0  0  0  0
    0.3335    4.1637   10.6476 C   0  0  0  0  0  0  0  0  0  0  0  0
    0.9815    5.3199   11.0544 C   0  0  0  0  0  0  0  0  0  0  0  0
    1.9921    5.8727   10.2842 C   0  0  0  0  0  0  0  0  0  0  0  0
    2.3597    5.2786    9.0896 C   0  0  0  0  0  0  0  0  0  0  0  0
    1.6993    4.1370    8.6743 C   0  0  0  0  0  0  0  0  0  0  0  0
    2.0623    3.5666    7.5084 F   0  0  0  0  0  0  0  0  0  0  0  0
    0.6723    3.5633    9.4134 C   0  0  0  0  0  0  0  0  0  0  0  0
   -1.4243   -2.1178    9.8052 C   0  0  0  0  0  0  0  0  0  0  0  0
   -1.2958   -3.4572   10.1119 C   0  0  0  0  0  0  0  0  0  0  0  0
    2.2569   -6.2642    9.4401 H   0  0  0  0  0  0  0  0  0  0  0  0
    1.5226   -4.9684    8.4700 H   0  0  0  0  0  0  0  0  0  0  0  0
    1.4252   -6.6584    7.9290 H   0  0  0  0  0  0  0  0  0  0  0  0
   -0.6127   -6.0753    8.9458 H   0  0  0  0  0  0  0  0  0  0  0  0
   -0.8133   -5.8319   11.2974 H   0  0  0  0  0  0  0  0  0  0  0  0
    0.9521   -5.6639   11.3709 H   0  0  0  0  0  0  0  0  0  0  0  0
    1.9957   -3.5388   10.8339 H   0  0  0  0  0  0  0  0  0  0  0  0
    1.7770   -1.1579   10.2871 H   0  0  0  0  0  0  0  0  0  0  0  0
    1.5007    0.7506    8.7491 H   0  0  0  0  0  0  0  0  0  0  0  0
   -1.9234    2.9855    9.6182 H   0  0  0  0  0  0  0  0  0  0  0  0
   -3.4517    1.3959   10.8156 H   0  0  0  0  0  0  0  0  0  0  0  0
   -2.7749   -0.1667   11.3094 H   0  0  0  0  0  0  0  0  0  0  0  0
   -1.5124    0.7781   12.9938 H   0  0  0  0  0  0  0  0  0  0  0  0
   -2.5552    2.2046   12.7946 H   0  0  0  0  0  0  0  0  0  0  0  0
    0.1393    1.8403   11.6831 H   0  0  0  0  0  0  0  0  0  0  0  0
    0.6907    5.7786   11.9873 H   0  0  0  0  0  0  0  0  0  0  0  0
    2.4938    6.7686   10.6152 H   0  0  0  0  0  0  0  0  0  0  0  0
    3.1421    5.6902    8.4718 H   0  0  0  0  0  0  0  0  0  0  0  0
   -2.3809   -1.7234    9.4958 H   0  0  0  0  0  0  0  0  0  0  0  0
   -2.1604   -4.1053   10.0578 H   0  0  0  0  0  0  0  0  0  0  0  0
    3.4584   -1.4503    1.6732 B   0  0  0  0  0  0  0  0  0  0  0  0
    3.4546    1.1327    0.9848 N   0  0  0  0  0  0  0  0  0  0  0  0
    2.5432    2.3668   -1.2167 B   0  0  0  0  0  0  0  0  0  0  0  0
    2.2973   -0.6375   -2.6877 N   0  0  0  0  0  0  0  0  0  0  0  0
    0.6897   -3.5580    2.7452 B   0  0  0  0  0  0  0  0  0  0  0  0
   -2.9378   -2.6530    1.7485 N   0  0  0  0  0  0  0  0  0  0  0  0
   -1.0385    4.0856    1.8737 B   0  0  0  0  0  0  0  0  0  0  0  0
   -0.6145    0.0202   -3.9024 N   0  0  0  0  0  0  0  0  0  0  0  0
   -0.4678    1.4481   -4.0504 B   0  0  0  0  0  0  0  0  0  0  0  0
    1.2140   -3.7835   -1.6979 N   0  0  0  0  0  0  0  0  0  0  0  0
   -3.8411    2.2105   -0.4542 B   0  0  0  0  0  0  0  0  0  0  0  0
   -2.7697    2.7652   -1.1719 N   0  0  0  0  0  0  0  0  0  0  0  0
    1.4112    0.8222   -4.8467 B   0  0  0  0  0  0  0  0  0  0  0  0
   -0.2374    3.3651    2.8762 N   0  0  0  0  0  0  0  0  0  0  0  0
    0.9034   -2.8762   -2.7723 B   0  0  0  0  0  0  0  0  0  0  0  0
   -0.4891    3.7692   -0.9682 N   0  0  0  0  0  0  0  0  0  0  0  0
   -0.8077    2.1850    3.3291 B   0  0  0  0  0  0  0  0  0  0  0  0
    1.6513   -1.2704    3.5434 N   0  0  0  0  0  0  0  0  0  0  0  0
   -0.2445    3.4728   -2.3377 B   0  0  0  0  0  0  0  0  0  0  0  0
    1.3035    0.0718    3.8575 N   0  0  0  0  0  0  0  0  0  0  0  0
   -1.5928   -0.5578   -3.0456 B   0  0  0  0  0  0  0  0  0  0  0  0
   -3.8303    1.7768    0.8708 N   0  0  0  0  0  0  0  0  0  0  0  0
    0.3372    4.4979    1.2273 B   0  0  0  0  0  0  0  0  0  0  0  0
    0.0408   -0.0113    4.5019 N   0  0  0  0  0  0  0  0  0  0  0  0
   -2.7071    2.2267    1.6421 B   0  0  0  0  0  0  0  0  0  0  0  0
    3.7745   -0.1287   -0.7207 N   0  0  0  0  0  0  0  0  0  0  0  0
   -2.2508   -3.6370    1.0470 B   0  0  0  0  0  0  0  0  0  0  0  0
    1.0534    3.7347    2.2787 N   0  0  0  0  0  0  0  0  0  0  0  0
   -1.8260   -0.7753    3.2620 B   0  0  0  0  0  0  0  0  0  0  0  0
   -2.4334   -3.6000   -0.4122 N   0  0  0  0  0  0  0  0  0  0  0  0
    3.0215   -1.0694   -1.4589 B   0  0  0  0  0  0  0  0  0  0  0  0
   -3.1535   -1.2508   -0.3457 N   0  0  0  0  0  0  0  0  0  0  0  0
    2.0346    2.9256    1.6070 B   0  0  0  0  0  0  0  0  0  0  0  0
   -0.5029   -2.8981   -2.3933 N   0  0  0  0  0  0  0  0  0  0  0  0
   -1.6691   -2.1109   -2.4530 B   0  0  0  0  0  0  0  0  0  0  0  0
    0.5920    3.9682   -0.0675 N   0  0  0  0  0  0  0  0  0  0  0  0
    1.0952    2.9637   -3.1397 B   0  0  0  0  0  0  0  0  0  0  0  0
    0.0784   -4.3570    1.7631 N   0  0  0  0  0  0  0  0  0  0  0  0
   -1.7813    3.4534   -0.3670 B   0  0  0  0  0  0  0  0  0  0  0  0
   -2.0124    3.4187    1.0724 N   0  0  0  0  0  0  0  0  0  0  0  0
    1.4669   -4.2082    1.5421 B   0  0  0  0  0  0  0  0  0  0  0  0
   -0.8017    1.0660    4.2407 N   0  0  0  0  0  0  0  0  0  0  0  0
   -2.6620   -2.4001   -1.1368 B   0  0  0  0  0  0  0  0  0  0  0  0
   -1.0723   -4.4826    1.0310 N   0  0  0  0  0  0  0  0  0  0  0  0
   -2.4993    0.4935   -2.0702 B   0  0  0  0  0  0  0  0  0  0  0  0
    2.3540   -3.8831    0.4965 N   0  0  0  0  0  0  0  0  0  0  0  0
    3.9126   -0.1986    0.7714 B   0  0  0  0  0  0  0  0  0  0  0  0
    1.9334    1.9614   -2.4217 N   0  0  0  0  0  0  0  0  0  0  0  0
    1.0071    2.2584   -4.5798 B   0  0  0  0  0  0  0  0  0  0  0  0
   -4.1828    0.8299   -0.3089 N   0  0  0  0  0  0  0  0  0  0  0  0
   -1.3338    2.4562   -3.0739 B   0  0  0  0  0  0  0  0  0  0  0  0
   -2.3555    1.9348   -2.2662 N   0  0  0  0  0  0  0  0  0  0  0  0
    3.0735   -2.6407    0.6451 B   0  0  0  0  0  0  0  0  0  0  0  0
    2.3387   -3.6701   -0.9277 N   0  0  0  0  0  0  0  0  0  0  0  0
    2.2174    0.5509    2.8558 B   0  0  0  0  0  0  0  0  0  0  0  0
   -2.0288    0.6135    3.6444 N   0  0  0  0  0  0  0  0  0  0  0  0
   -1.0981   -4.1814   -0.4013 B   0  0  0  0  0  0  0  0  0  0  0  0
   -3.2141    0.0433   -0.9201 N   0  0  0  0  0  0  0  0  0  0  0  0
    3.4499    1.2627   -0.4688 B   0  0  0  0  0  0  0  0  0  0  0  0
    2.5814    1.6363    1.9813 N   0  0  0  0  0  0  0  0  0  0  0  0
    1.4773   -1.5509   -3.4735 B   0  0  0  0  0  0  0  0  0  0  0  0
   -2.1037    1.7562    2.8038 N   0  0  0  0  0  0  0  0  0  0  0  0
    2.0456    0.7165   -3.1683 B   0  0  0  0  0  0  0  0  0  0  0  0
   -2.7193   -1.3395    2.3601 N   0  0  0  0  0  0  0  0  0  0  0  0
    0.6644   -0.5353   -4.4460 B   0  0  0  0  0  0  0  0  0  0  0  0
   -0.1648   -3.7575   -1.3168 N   0  0  0  0  0  0  0  0  0  0  0  0
    0.4833   -2.1032    3.4774 B   0  0  0  0  0  0  0  0  0  0  0  0
   -0.5901   -1.2029    3.8708 N   0  0  0  0  0  0  0  0  0  0  0  0
   -3.2202   -1.4490    1.0390 B   0  0  0  0  0  0  0  0  0  0  0  0
    2.6701   -0.8517    2.6659 N   0  0  0  0  0  0  0  0  0  0  0  0
    1.8803    3.3429   -0.0619 B   0  0  0  0  0  0  0  0  0  0  0  0
    2.8795   -2.3279   -0.7500 N   0  0  0  0  0  0  0  0  0  0  0  0
  1  2  1  0  0  0  0
  2  3  1  0  0  0  0
  3  4  1  0  0  0  0
  4  5  4  0  0  0  0
  5  6  4  0  0  0  0
  6  7  4  0  0  0  0
  7  8  1  0  0  0  0
  8  9  4  0  0  0  0
  9 10  4  0  0  0  0
 10 11  1  0  0  0  0
  8 12  4  0  0  0  0
 11 12  4  0  0  0  0
 12 13  1  0  0  0  0
 13 14  1  0  0  0  0
 14 15  1  0  0  0  0
 15 16  4  0  0  0  0
 16 17  2  0  0  0  0
 16 18  1  0  0  0  0
 18 19  4  0  0  0  0
 19 20  4  0  0  0  0
 20 21  4  0  0  0  0
 21 22  4  0  0  0  0
 22 23  1  0  0  0  0
 10 24  1  0  0  0  0
 18 24  4  0  0  0  0
 22 24  4  0  0  0  0
  7 25  4  0  0  0  0
  4 26  4  0  0  0  0
 25 26  4  0  0  0  0
  1 27  1  0  0  0  0
  1 28  1  0  0  0  0
  1 29  1  0  0  0  0
  2 30  1  0  0  0  0
  3 31  1  0  0  0  0
  3 32  1  0  0  0  0
  5 33  1  0  0  0  0
  6 34  1  0  0  0  0
  9 35  1  0  0  0  0
 11 36  1  0  0  0  0
 13 37  1  0  0  0  0
 13 38  1  0  0  0  0
 14 39  1  0  0  0  0
 14 40  1  0  0  0  0
 15 41  1  0  0  0  0
 19 42  1  0  0  0  0
 20 43  1  0  0  0  0
 21 44  1  0  0  0  0
 25 45  1  0  0  0  0
 26 46  1  0  0  0  0
 54 55  1  0  0  0  0
 57 58  1  0  0  0  0
 53 60  1  0  0  0  0
 56 61  1  0  0  0  0
 60 63  1  0  0  0  0
 62 65  1  0  0  0  0
 64 66  1  0  0  0  0
 54 67  1  0  0  0  0
 57 68  1  0  0  0  0
 53 69  1  0  0  0  0
 66 70  1  0  0  0  0
 68 71  1  0  0  0  0
 52 73  1  0  0  0  0
 60 74  1  0  0  0  0
 69 74  1  0  0  0  0
 73 76  1  0  0  0  0
 50 77  1  0  0  0  0
 72 77  1  0  0  0  0
 74 79  1  0  0  0  0
 61 80  1  0  0  0  0
 67 81  1  0  0  0  0
 80 81  1  0  0  0  0
 62 82  1  0  0  0  0
 69 82  1  0  0  0  0
 65 83  1  0  0  0  0
 51 84  1  0  0  0  0
 58 85  1  0  0  0  0
 62 85  1  0  0  0  0
 53 86  1  0  0  0  0
 71 86  1  0  0  0  0
 85 86  1  0  0  0  0
 51 87  1  0  0  0  0
 84 87  1  0  0  0  0
 63 88  1  0  0  0  0
 70 88  1  0  0  0  0
 76 89  1  0  0  0  0
 78 89  1  0  0  0  0
 81 89  1  0  0  0  0
 73 90  1  0  0  0  0
 84 90  1  0  0  0  0
 67 91  1  0  0  0  0
 87 92  1  0  0  0  0
 47 93  1  0  0  0  0
 48 93  1  0  0  0  0
 72 93  1  0  0  0  0
 49 94  1  0  0  0  0
 83 94  1  0  0  0  0
 55 95  1  0  0  0  0
 59 95  1  0  0  0  0
 83 95  1  0  0  0  0
 57 96  1  0  0  0  0
 68 96  1  0  0  0  0
 55 97  1  0  0  0  0
 65 97  1  0  0  0  0
 58 98  1  0  0  0  0
 91 98  1  0  0  0  0
 97 98  1  0  0  0  0
 47 99  1  0  0  0  0
 92 99  1  0  0  0  0
 56100  1  0  0  0  0
 92100  1  0  0  0  0
 66101  1  0  0  0  0
 75102  1  0  0  0  0
 88102  1  0  0  0  0
 76103  1  0  0  0  0
 90103  1  0  0  0  0
 78104  1  0  0  0  0
 91104  1  0  0  0  0
 96104  1  0  0  0  0
 48105  1  0  0  0  0
 49105  1  0  0  0  0
 72105  1  0  0  0  0
 48106  1  0  0  0  0
 79106  1  0  0  0  0
101106  1  0  0  0  0
 50107  1  0  0  0  0
 61107  1  0  0  0  0
 63108  1  0  0  0  0
 71108  1  0  0  0  0
102108  1  0  0  0  0
 50109  1  0  0  0  0
 59109  1  0  0  0  0
 94109  1  0  0  0  0
 52110  1  0  0  0  0
 75110  1  0  0  0  0
 54111  1  0  0  0  0
 59111  1  0  0  0  0
107111  1  0  0  0  0
 56112  1  0  0  0  0
 80112  1  0  0  0  0
103112  1  0  0  0  0
 51113  1  0  0  0  0
 64113  1  0  0  0  0
 70114  1  0  0  0  0
 75114  1  0  0  0  0
113114  1  0  0  0  0
 52115  1  0  0  0  0
 78115  1  0  0  0  0
110115  1  0  0  0  0
 47116  1  0  0  0  0
 64116  1  0  0  0  0
101116  1  0  0  0  0
 49117  1  0  0  0  0
 79117  1  0  0  0  0
 82117  1  0  0  0  0
 77118  1  0  0  0  0
 99118  1  0  0  0  0
100118  1  0  0  0  0
M  END
