 xtb: 6.7.1pre (5071a88)
          08312618353D

123103  0     0  0            999 V2000
    0.7608    1.2877   -1.9257 O   0  0  0  0  0  0  0  0  0  0  0  0
    0.4318    0.6148   -0.7120 C   0  0  0  0  0  0  0  0  0  0  0  0
    1.4275   -0.5756   -0.4738 C   0  0  0  0  0  0  0  0  0  0  0  0
    2.8097   -0.2031   -0.0932 N   0  0  0  0  0  0  0  0  0  0  0  0
    3.7809   -0.3802   -1.1765 C   0  0  0  0  0  0  0  0  0  0  0  0
    5.2206   -0.3054   -0.7065 C   0  0  0  0  0  0  0  0  0  0  0  0
    5.9556    0.8590   -1.0048 C   0  0  0  0  0  0  0  0  0  0  0  0
    7.2763    0.9925   -0.5884 C   0  0  0  0  0  0  0  0  0  0  0  0
    7.9492    2.1118   -0.8842 F   0  0  0  0  0  0  0  0  0  0  0  0
    7.9040   -0.0140    0.1288 C   0  0  0  0  0  0  0  0  0  0  0  0
    7.1978   -1.1762    0.4356 C   0  0  0  0  0  0  0  0  0  0  0  0
    5.8638   -1.3251    0.0231 C   0  0  0  0  0  0  0  0  0  0  0  0
    4.9261   -3.1320    0.5495 I   0  0  0  0  0  0  0  0  0  0  0  0
    2.8648    1.1157    0.5574 C   0  0  0  0  0  0  0  0  0  0  0  0
    1.5388    1.4576    1.2476 C   0  0  0  0  0  0  0  0  0  0  0  0
    0.4818    1.6234    0.3000 O   0  0  0  0  0  0  0  0  0  0  0  0
   -0.9806    0.0805   -0.8538 C   0  0  0  0  0  0  0  0  0  0  0  0
   -1.3901   -0.5489   -2.0359 C   0  0  0  0  0  0  0  0  0  0  0  0
   -0.5170   -0.7307   -3.0386 F   0  0  0  0  0  0  0  0  0  0  0  0
   -2.6794   -1.0480   -2.1854 C   0  0  0  0  0  0  0  0  0  0  0  0
   -3.0258   -1.6656   -3.3243 F   0  0  0  0  0  0  0  0  0  0  0  0
   -3.5954   -0.9423   -1.1484 C   0  0  0  0  0  0  0  0  0  0  0  0
   -4.8095   -1.4931   -1.3061 F   0  0  0  0  0  0  0  0  0  0  0  0
   -3.2358   -0.3481    0.0651 C   0  0  0  0  0  0  0  0  0  0  0  0
   -4.1137   -0.2026    1.1596 N   0  0  0  0  0  0  0  0  0  0  0  0
   -5.5048    0.0364    1.2242 C   0  0  0  0  0  0  0  0  0  0  0  0
   -6.2381    0.5935    0.1627 C   0  0  0  0  0  0  0  0  0  0  0  0
   -5.6144    1.0316   -0.9425 F   0  0  0  0  0  0  0  0  0  0  0  0
   -7.6201    0.7770    0.2312 C   0  0  0  0  0  0  0  0  0  0  0  0
   -8.3156    0.4040    1.3761 C   0  0  0  0  0  0  0  0  0  0  0  0
   -7.6226   -0.1448    2.4528 C   0  0  0  0  0  0  0  0  0  0  0  0
   -6.2337   -0.3259    2.3761 C   0  0  0  0  0  0  0  0  0  0  0  0
   -5.2846   -1.1659    4.0592 I   0  0  0  0  0  0  0  0  0  0  0  0
   -1.9174    0.1374    0.1893 C   0  0  0  0  0  0  0  0  0  0  0  0
   -1.5623    0.6363    1.3858 F   0  0  0  0  0  0  0  0  0  0  0  0
    1.7098    1.4677   -1.8758 H   0  0  0  0  0  0  0  0  0  0  0  0
    1.0444   -1.1799    0.3601 H   0  0  0  0  0  0  0  0  0  0  0  0
    1.4345   -1.2434   -1.3447 H   0  0  0  0  0  0  0  0  0  0  0  0
    3.6084    0.3580   -1.9704 H   0  0  0  0  0  0  0  0  0  0  0  0
    3.6442   -1.3524   -1.6667 H   0  0  0  0  0  0  0  0  0  0  0  0
    5.5075    1.6771   -1.5625 H   0  0  0  0  0  0  0  0  0  0  0  0
    8.9350    0.1100    0.4442 H   0  0  0  0  0  0  0  0  0  0  0  0
    7.6997   -1.9602    0.9985 H   0  0  0  0  0  0  0  0  0  0  0  0
    3.6696    1.1212    1.3004 H   0  0  0  0  0  0  0  0  0  0  0  0
    3.0759    1.8998   -0.1802 H   0  0  0  0  0  0  0  0  0  0  0  0
    1.2522    0.6915    1.9779 H   0  0  0  0  0  0  0  0  0  0  0  0
    1.6374    2.4023    1.7920 H   0  0  0  0  0  0  0  0  0  0  0  0
   -3.6405   -0.0071    2.0405 H   0  0  0  0  0  0  0  0  0  0  0  0
   -8.1392    1.2189   -0.6141 H   0  0  0  0  0  0  0  0  0  0  0  0
   -9.3921    0.5447    1.4319 H   0  0  0  0  0  0  0  0  0  0  0  0
   -8.1754   -0.4310    3.3448 H   0  0  0  0  0  0  0  0  0  0  0  0
    2.1012    0.0000    3.3450 B   0  0  0  0  0  0  0  0  0  0  0  0
   -2.1012    0.0000    3.3450 B   0  0  0  0  0  0  0  0  0  0  0  0
    0.0000    2.1012    3.3450 B   0  0  0  0  0  0  0  0  0  0  0  0
    0.0000   -2.1012    3.3450 B   0  0  0  0  0  0  0  0  0  0  0  0
    3.3450    2.1012    0.0000 B   0  0  0  0  0  0  0  0  0  0  0  0
    3.3450   -2.1012    0.0000 B   0  0  0  0  0  0  0  0  0  0  0  0
    3.3450    0.0000    2.1012 B   0  0  0  0  0  0  0  0  0  0  0  0
    3.3450    0.0000   -2.1012 B   0  0  0  0  0  0  0  0  0  0  0  0
   -3.3450    2.1012    0.0000 B   0  0  0  0  0  0  0  0  0  0  0  0
   -3.3450   -2.1012    0.0000 B   0  0  0  0  0  0  0  0  0  0  0  0
   -3.3450    0.0000    2.1012 B   0  0  0  0  0  0  0  0  0  0  0  0
   -3.3450    0.0000   -2.1012 B   0  0  0  0  0  0  0  0  0  0  0  0
    2.1012    0.0000   -3.3450 B   0  0  0  0  0  0  0  0  0  0  0  0
   -2.1012    0.0000   -3.3450 B   0  0  0  0  0  0  0  0  0  0  0  0
    0.0000    2.1012   -3.3450 B   0  0  0  0  0  0  0  0  0  0  0  0
    0.0000   -2.1012   -3.3450 B   0  0  0  0  0  0  0  0  0  0  0  0
    0.0000    3.3450    2.1012 B   0  0  0  0  0  0  0  0  0  0  0  0
    0.0000    3.3450   -2.1012 B   0  0  0  0  0  0  0  0  0  0  0  0
    0.0000   -3.3450    2.1012 B   0  0  0  0  0  0  0  0  0  0  0  0
    0.0000   -3.3450   -2.1012 B   0  0  0  0  0  0  0  0  0  0  0  0
    2.1012    3.3450    0.0000 B   0  0  0  0  0  0  0  0  0  0  0  0
   -2.1012    3.3450    0.0000 B   0  0  0  0  0  0  0  0  0  0  0  0
    2.1012   -3.3450    0.0000 B   0  0  0  0  0  0  0  0  0  0  0  0
   -2.1012   -3.3450    0.0000 B   0  0  0  0  0  0  0  0  0  0  0  0
    1.4800    1.4800    3.5800 B   0  0  0  0  0  0  0  0  0  0  0  0
   -1.4800    1.4800    3.5800 B   0  0  0  0  0  0  0  0  0  0  0  0
    1.4800   -1.4800    3.5800 B   0  0  0  0  0  0  0  0  0  0  0  0
   -1.4800   -1.4800    3.5800 B   0  0  0  0  0  0  0  0  0  0  0  0
    3.5800    1.4800    1.4800 B   0  0  0  0  0  0  0  0  0  0  0  0
    3.5800   -1.4800    1.4800 B   0  0  0  0  0  0  0  0  0  0  0  0
    3.5800    1.4800   -1.4800 B   0  0  0  0  0  0  0  0  0  0  0  0
    3.5800   -1.4800   -1.4800 B   0  0  0  0  0  0  0  0  0  0  0  0
   -3.5800    1.4800    1.4800 B   0  0  0  0  0  0  0  0  0  0  0  0
   -3.5800   -1.4800    1.4800 B   0  0  0  0  0  0  0  0  0  0  0  0
   -3.5800    1.4800   -1.4800 B   0  0  0  0  0  0  0  0  0  0  0  0
   -3.5800   -1.4800   -1.4800 B   0  0  0  0  0  0  0  0  0  0  0  0
    2.1012    0.0000    3.9200 N   0  0  0  0  0  0  0  0  0  0  0  0
   -2.1012    0.0000    3.9200 N   0  0  0  0  0  0  0  0  0  0  0  0
    0.0000    2.1012    3.9200 N   0  0  0  0  0  0  0  0  0  0  0  0
    0.0000   -2.1012    3.9200 N   0  0  0  0  0  0  0  0  0  0  0  0
    3.9200    2.1012    0.0000 N   0  0  0  0  0  0  0  0  0  0  0  0
    3.9200   -2.1012    0.0000 N   0  0  0  0  0  0  0  0  0  0  0  0
    3.9200    0.0000    2.1012 N   0  0  0  0  0  0  0  0  0  0  0  0
    3.9200    0.0000   -2.1012 N   0  0  0  0  0  0  0  0  0  0  0  0
   -3.9200    2.1012    0.0000 N   0  0  0  0  0  0  0  0  0  0  0  0
   -3.9200   -2.1012    0.0000 N   0  0  0  0  0  0  0  0  0  0  0  0
   -3.9200    0.0000    2.1012 N   0  0  0  0  0  0  0  0  0  0  0  0
   -3.9200    0.0000   -2.1012 N   0  0  0  0  0  0  0  0  0  0  0  0
    2.1012    0.0000   -3.9200 N   0  0  0  0  0  0  0  0  0  0  0  0
   -2.1012    0.0000   -3.9200 N   0  0  0  0  0  0  0  0  0  0  0  0
    0.0000    2.1012   -3.9200 N   0  0  0  0  0  0  0  0  0  0  0  0
    0.0000   -2.1012   -3.9200 N   0  0  0  0  0  0  0  0  0  0  0  0
    0.0000    3.9200    2.1012 N   0  0  0  0  0  0  0  0  0  0  0  0
    0.0000    3.9200   -2.1012 N   0  0  0  0  0  0  0  0  0  0  0  0
    0.0000   -3.9200    2.1012 N   0  0  0  0  0  0  0  0  0  0  0  0
    0.0000   -3.9200   -2.1012 N   0  0  0  0  0  0  0  0  0  0  0  0
    2.1012    3.9200    0.0000 N   0  0  0  0  0  0  0  0  0  0  0  0
   -2.1012    3.9200    0.0000 N   0  0  0  0  0  0  0  0  0  0  0  0
    2.1012   -3.9200    0.0000 N   0  0  0  0  0  0  0  0  0  0  0  0
   -2.1012   -3.9200    0.0000 N   0  0  0  0  0  0  0  0  0  0  0  0
    1.4800    1.4800    4.2200 N   0  0  0  0  0  0  0  0  0  0  0  0
   -1.4800    1.4800    4.2200 N   0  0  0  0  0  0  0  0  0  0  0  0
    1.4800   -1.4800    4.2200 N   0  0  0  0  0  0  0  0  0  0  0  0
   -1.4800   -1.4800    4.2200 N   0  0  0  0  0  0  0  0  0  0  0  0
    4.2200    1.4800    1.4800 N   0  0  0  0  0  0  0  0  0  0  0  0
    4.2200   -1.4800    1.4800 N   0  0  0  0  0  0  0  0  0  0  0  0
    4.2200    1.4800   -1.4800 N   0  0  0  0  0  0  0  0  0  0  0  0
    4.2200   -1.4800   -1.4800 N   0  0  0  0  0  0  0  0  0  0  0  0
   -4.2200    1.4800    1.4800 N   0  0  0  0  0  0  0  0  0  0  0  0
   -4.2200   -1.4800    1.4800 N   0  0  0  0  0  0  0  0  0  0  0  0
   -4.2200    1.4800   -1.4800 N   0  0  0  0  0  0  0  0  0  0  0  0
   -4.2200   -1.4800   -1.4800 N   0  0  0  0  0  0  0  0  0  0  0  0
  1  2  1  0  0  0  0
  2  3  1  0  0  0  0
  3  4  1  0  0  0  0
  4  5  1  0  0  0  0
  5  6  1  0  0  0  0
  6  7  4  0  0  0  0
  7  8  4  0  0  0  0
  8  9  1  0  0  0  0
  8 10  4  0  0  0  0
 10 11  4  0  0  0  0
  6 12  4  0  0  0  0
 11 12  4  0  0  0  0
 12 13  1  0  0  0  0
  4 14  1  0  0  0  0
 14 15  1  0  0  0  0
  2 16  1  0  0  0  0
 15 16  1  0  0  0  0
  2 17  1  0  0  0  0
 17 18  1  0  0  0  0
 18 19  1  0  0  0  0
 18 20  1  0  0  0  0
 20 21  1  0  0  0  0
 20 22  1  0  0  0  0
 22 24  1  0  0  0  0
 24 25  1  0  0  0  0
 25 26  1  0  0  0  0
 26 27  1  0  0  0  0
 27 28  1  0  0  0  0
 27 29  4  0  0  0  0
 29 30  4  0  0  0  0
 30 31  4  0  0  0  0
 26 32  1  0  0  0  0
 31 32  4  0  0  0  0
 32 33  1  0  0  0  0
 17 34  4  0  0  0  0
 24 34  1  0  0  0  0
 34 35  1  0  0  0  0
  1 36  1  0  0  0  0
  3 37  1  0  0  0  0
  3 38  1  0  0  0  0
  7 41  1  0  0  0  0
 10 42  1  0  0  0  0
 11 43  1  0  0  0  0
 15 46  1  0  0  0  0
 15 47  1  0  0  0  0
 29 49  1  0  0  0  0
 30 50  1  0  0  0  0
 31 51  1  0  0  0  0
 14 56  1  0  0  0  0
  5 59  1  0  0  0  0
 53 62  1  0  0  0  0
 20 63  1  0  0  0  0
 59 64  1  0  0  0  0
 14 80  1  0  0  0  0
  5 83  1  0  0  0  0
 20 87  1  0  0  0  0
 22 87  1  0  0  0  0
 52 88  3  0  0  0  0
 53 89  3  0  0  0  0
 54 90  3  0  0  0  0
 55 91  3  0  0  0  0
 56 92  3  0  0  0  0
 57 93  3  0  0  0  0
 58 94  3  0  0  0  0
  5 95  1  0  0  0  0
 39 95  1  0  0  0  0
 59 95  2  0  0  0  0
 60 96  3  0  0  0  0
 61 97  3  0  0  0  0
 25 98  1  0  0  0  0
 48 98  1  0  0  0  0
 62 98  2  0  0  0  0
 22 99  1  0  0  0  0
 63 99  3  0  0  0  0
 64100  3  0  0  0  0
 65101  3  0  0  0  0
 66102  3  0  0  0  0
 67103  3  0  0  0  0
 68104  3  0  0  0  0
 69105  3  0  0  0  0
 70106  3  0  0  0  0
 71107  3  0  0  0  0
 72108  3  0  0  0  0
 73109  3  0  0  0  0
 74110  3  0  0  0  0
 75111  3  0  0  0  0
 76112  3  0  0  0  0
 77113  3  0  0  0  0
 78114  3  0  0  0  0
 79115  3  0  0  0  0
 44116  1  0  0  0  0
 80116  3  0  0  0  0
 81117  3  0  0  0  0
 82118  3  0  0  0  0
  5119  1  0  0  0  0
 83119  2  0  0  0  0
 84120  3  0  0  0  0
 25121  1  0  0  0  0
 85121  2  0  0  0  0
 86122  3  0  0  0  0
 22123  1  0  0  0  0
 23123  2  0  0  0  0
 87123  2  0  0  0  0
M  END
