 xtb: 6.7.1pre (5071a88)
          08312621133D

123162  0     0  0            999 V2000
    0.7608    1.2220    9.8381 O   0  0  0  0  0  0  0  0  0  0  0  0
    0.4318    0.5492   11.0518 C   0  0  0  0  0  0  0  0  0  0  0  0
    1.4275   -0.6413   11.2900 C   0  0  0  0  0  0  0  0  0  0  0  0
    2.8097   -0.2688   11.6706 N   0  0  0  0  0  0  0  0  0  0  0  0
    3.7809   -0.4458   10.5873 C   0  0  0  0  0  0  0  0  0  0  0  0
    5.2206   -0.3711   11.0573 C   0  0  0  0  0  0  0  0  0  0  0  0
    5.9556    0.7933   10.7590 C   0  0  0  0  0  0  0  0  0  0  0  0
    7.2763    0.9268   11.1754 C   0  0  0  0  0  0  0  0  0  0  0  0
    7.9492    2.0461   10.8796 F   0  0  0  0  0  0  0  0  0  0  0  0
    7.9040   -0.0797   11.8926 C   0  0  0  0  0  0  0  0  0  0  0  0
    7.1978   -1.2419   12.1994 C   0  0  0  0  0  0  0  0  0  0  0  0
    5.8638   -1.3908   11.7869 C   0  0  0  0  0  0  0  0  0  0  0  0
    4.9261   -3.1976   12.3132 I   0  0  0  0  0  0  0  0  0  0  0  0
    2.8648    1.0501   12.3212 C   0  0  0  0  0  0  0  0  0  0  0  0
    1.5388    1.3919   13.0114 C   0  0  0  0  0  0  0  0  0  0  0  0
    0.4818    1.5577   12.0638 O   0  0  0  0  0  0  0  0  0  0  0  0
   -0.9806    0.0148   10.9100 C   0  0  0  0  0  0  0  0  0  0  0  0
   -1.3901   -0.6146    9.7279 C   0  0  0  0  0  0  0  0  0  0  0  0
   -0.5170   -0.7964    8.7252 F   0  0  0  0  0  0  0  0  0  0  0  0
   -2.6794   -1.1137    9.5784 C   0  0  0  0  0  0  0  0  0  0  0  0
   -3.0258   -1.7312    8.4395 F   0  0  0  0  0  0  0  0  0  0  0  0
   -3.5954   -1.0079   10.6154 C   0  0  0  0  0  0  0  0  0  0  0  0
   -4.8095   -1.5588   10.4577 F   0  0  0  0  0  0  0  0  0  0  0  0
   -3.2358   -0.4137   11.8289 C   0  0  0  0  0  0  0  0  0  0  0  0
   -4.1137   -0.2683   12.9233 N   0  0  0  0  0  0  0  0  0  0  0  0
   -5.5048   -0.0292   12.9880 C   0  0  0  0  0  0  0  0  0  0  0  0
   -6.2381    0.5279   11.9265 C   0  0  0  0  0  0  0  0  0  0  0  0
   -5.6144    0.9659   10.8213 F   0  0  0  0  0  0  0  0  0  0  0  0
   -7.6201    0.7114   11.9950 C   0  0  0  0  0  0  0  0  0  0  0  0
   -8.3156    0.3383   13.1399 C   0  0  0  0  0  0  0  0  0  0  0  0
   -7.6226   -0.2105   14.2166 C   0  0  0  0  0  0  0  0  0  0  0  0
   -6.2337   -0.3916   14.1399 C   0  0  0  0  0  0  0  0  0  0  0  0
   -5.2846   -1.2315   15.8230 I   0  0  0  0  0  0  0  0  0  0  0  0
   -1.9174    0.0718   11.9531 C   0  0  0  0  0  0  0  0  0  0  0  0
   -1.5623    0.5706   13.1496 F   0  0  0  0  0  0  0  0  0  0  0  0
    1.7098    1.4020    9.8880 H   0  0  0  0  0  0  0  0  0  0  0  0
    1.0444   -1.2456   12.1239 H   0  0  0  0  0  0  0  0  0  0  0  0
    1.4345   -1.3091   10.4191 H   0  0  0  0  0  0  0  0  0  0  0  0
    3.6084    0.2924    9.7934 H   0  0  0  0  0  0  0  0  0  0  0  0
    3.6442   -1.4180   10.0970 H   0  0  0  0  0  0  0  0  0  0  0  0
    5.5075    1.6114   10.2013 H   0  0  0  0  0  0  0  0  0  0  0  0
    8.9350    0.0443   12.2079 H   0  0  0  0  0  0  0  0  0  0  0  0
    7.6997   -2.0258   12.7623 H   0  0  0  0  0  0  0  0  0  0  0  0
    3.6696    1.0555   13.0642 H   0  0  0  0  0  0  0  0  0  0  0  0
    3.0759    1.8341   11.5836 H   0  0  0  0  0  0  0  0  0  0  0  0
    1.2522    0.6258   13.7417 H   0  0  0  0  0  0  0  0  0  0  0  0
    1.6374    2.3366   13.5558 H   0  0  0  0  0  0  0  0  0  0  0  0
   -3.6405   -0.0728   13.8043 H   0  0  0  0  0  0  0  0  0  0  0  0
   -8.1392    1.1532   11.1497 H   0  0  0  0  0  0  0  0  0  0  0  0
   -9.3921    0.4790   13.1957 H   0  0  0  0  0  0  0  0  0  0  0  0
   -8.1754   -0.4966   15.1086 H   0  0  0  0  0  0  0  0  0  0  0  0
    3.4592   -1.4546    1.6280 B   0  0  0  0  0  0  0  0  0  0  0  0
    3.4564    1.1299    0.9400 N   0  0  0  0  0  0  0  0  0  0  0  0
    2.5399    2.3625   -1.2610 B   0  0  0  0  0  0  0  0  0  0  0  0
    2.2931   -0.6416   -2.7306 N   0  0  0  0  0  0  0  0  0  0  0  0
    0.6905   -3.5611    2.7027 B   0  0  0  0  0  0  0  0  0  0  0  0
   -2.9397   -2.6548    1.7095 N   0  0  0  0  0  0  0  0  0  0  0  0
   -1.0382    4.0851    1.8312 B   0  0  0  0  0  0  0  0  0  0  0  0
   -0.6193    0.0177   -3.9419 N   0  0  0  0  0  0  0  0  0  0  0  0
   -0.4737    1.4453   -4.0917 B   0  0  0  0  0  0  0  0  0  0  0  0
    1.2096   -3.7868   -1.7394 N   0  0  0  0  0  0  0  0  0  0  0  0
   -3.8445    2.2094   -0.4937 B   0  0  0  0  0  0  0  0  0  0  0  0
   -2.7729    2.7636   -1.2118 N   0  0  0  0  0  0  0  0  0  0  0  0
    1.4057    0.8181   -4.8893 B   0  0  0  0  0  0  0  0  0  0  0  0
   -0.2358    3.3642    2.8335 N   0  0  0  0  0  0  0  0  0  0  0  0
    0.8983   -2.8798   -2.8138 B   0  0  0  0  0  0  0  0  0  0  0  0
   -0.4918    3.7666   -1.0101 N   0  0  0  0  0  0  0  0  0  0  0  0
   -0.8060    2.1823    3.2819 B   0  0  0  0  0  0  0  0  0  0  0  0
    1.6561   -1.2744    3.5036 N   0  0  0  0  0  0  0  0  0  0  0  0
   -0.2485    3.4699   -2.3799 B   0  0  0  0  0  0  0  0  0  0  0  0
    1.3087    0.0689    3.8170 N   0  0  0  0  0  0  0  0  0  0  0  0
   -1.5974   -0.5599   -3.0847 B   0  0  0  0  0  0  0  0  0  0  0  0
   -3.8325    1.7768    0.8316 N   0  0  0  0  0  0  0  0  0  0  0  0
    0.3376    4.4960    1.1839 B   0  0  0  0  0  0  0  0  0  0  0  0
    0.0433   -0.0140    4.4567 N   0  0  0  0  0  0  0  0  0  0  0  0
   -2.7088    2.2268    1.6012 B   0  0  0  0  0  0  0  0  0  0  0  0
    3.7727   -0.1326   -0.7655 N   0  0  0  0  0  0  0  0  0  0  0  0
   -2.2534   -3.6394    1.0085 B   0  0  0  0  0  0  0  0  0  0  0  0
    1.0558    3.7334    2.2357 N   0  0  0  0  0  0  0  0  0  0  0  0
   -1.8256   -0.7775    3.2198 B   0  0  0  0  0  0  0  0  0  0  0  0
   -2.4368   -3.6019   -0.4508 N   0  0  0  0  0  0  0  0  0  0  0  0
    3.0187   -1.0737   -1.5028 B   0  0  0  0  0  0  0  0  0  0  0  0
   -3.1580   -1.2526   -0.3843 N   0  0  0  0  0  0  0  0  0  0  0  0
    2.0347    2.9223    1.5617 B   0  0  0  0  0  0  0  0  0  0  0  0
   -0.5074   -2.9001   -2.4328 N   0  0  0  0  0  0  0  0  0  0  0  0
   -1.6735   -2.1129   -2.4916 B   0  0  0  0  0  0  0  0  0  0  0  0
    0.5901    3.9646   -0.1102 N   0  0  0  0  0  0  0  0  0  0  0  0
    1.0903    2.9596   -3.1825 B   0  0  0  0  0  0  0  0  0  0  0  0
    0.0774   -4.3592    1.7213 N   0  0  0  0  0  0  0  0  0  0  0  0
   -1.7840    3.4524   -0.4082 B   0  0  0  0  0  0  0  0  0  0  0  0
   -2.0135    3.4185    1.0316 N   0  0  0  0  0  0  0  0  0  0  0  0
    1.4659   -4.2121    1.4991 B   0  0  0  0  0  0  0  0  0  0  0  0
   -0.7980    1.0642    4.1946 N   0  0  0  0  0  0  0  0  0  0  0  0
   -2.6662   -2.4021   -1.1753 B   0  0  0  0  0  0  0  0  0  0  0  0
   -1.0744   -4.4843    0.9912 N   0  0  0  0  0  0  0  0  0  0  0  0
   -2.5037    0.4914   -2.1091 B   0  0  0  0  0  0  0  0  0  0  0  0
    2.3527   -3.8873    0.4531 N   0  0  0  0  0  0  0  0  0  0  0  0
    3.9123   -0.2024    0.7259 B   0  0  0  0  0  0  0  0  0  0  0  0
    1.9285    1.9570   -2.4651 N   0  0  0  0  0  0  0  0  0  0  0  0
    1.0012    2.2544   -4.6225 B   0  0  0  0  0  0  0  0  0  0  0  0
   -4.1860    0.8290   -0.3475 N   0  0  0  0  0  0  0  0  0  0  0  0
   -1.3389    2.4537   -3.1149 B   0  0  0  0  0  0  0  0  0  0  0  0
   -2.3596    1.9326   -2.3058 N   0  0  0  0  0  0  0  0  0  0  0  0
    3.0731   -2.6455    0.6011 B   0  0  0  0  0  0  0  0  0  0  0  0
    2.3352   -3.6737   -0.9709 N   0  0  0  0  0  0  0  0  0  0  0  0
    2.2179    0.5458    2.8084 B   0  0  0  0  0  0  0  0  0  0  0  0
   -2.0264    0.6119    3.6015 N   0  0  0  0  0  0  0  0  0  0  0  0
   -1.1017   -4.1838   -0.4410 B   0  0  0  0  0  0  0  0  0  0  0  0
   -3.2181    0.0417   -0.9586 N   0  0  0  0  0  0  0  0  0  0  0  0
    3.4478    1.2586   -0.5141 B   0  0  0  0  0  0  0  0  0  0  0  0
    2.5821    1.6330    1.9365 N   0  0  0  0  0  0  0  0  0  0  0  0
    1.4721   -1.5550   -3.5156 B   0  0  0  0  0  0  0  0  0  0  0  0
   -2.1026    1.7542    2.7608 N   0  0  0  0  0  0  0  0  0  0  0  0
    2.0408    0.7119   -3.2115 B   0  0  0  0  0  0  0  0  0  0  0  0
   -2.7209   -1.3417    2.3206 N   0  0  0  0  0  0  0  0  0  0  0  0
    0.6586   -0.5389   -4.4869 B   0  0  0  0  0  0  0  0  0  0  0  0
   -0.1687   -3.7594   -1.3565 N   0  0  0  0  0  0  0  0  0  0  0  0
    0.4856   -2.1056    3.4338 B   0  0  0  0  0  0  0  0  0  0  0  0
   -0.5873   -1.2050    3.8245 N   0  0  0  0  0  0  0  0  0  0  0  0
   -3.2244   -1.4514    1.0003 B   0  0  0  0  0  0  0  0  0  0  0  0
    2.6713   -0.8555    2.6211 N   0  0  0  0  0  0  0  0  0  0  0  0
    1.8786    3.3393   -0.1064 B   0  0  0  0  0  0  0  0  0  0  0  0
    2.8769   -2.3318   -0.7936 N   0  0  0  0  0  0  0  0  0  0  0  0
  1  2  1  0  0  0  0
  2  3  1  0  0  0  0
  3  4  1  0  0  0  0
  4  5  1  0  0  0  0
  5  6  1  0  0  0  0
  6  7  4  0  0  0  0
  7  8  4  0  0  0  0
  8  9  1  0  0  0  0
  8 10  4  0  0  0  0
 10 11  4  0  0  0  0
  6 12  4  0  0  0  0
 11 12  4  0  0  0  0
 12 13  1  0  0  0  0
  4 14  1  0  0  0  0
 14 15  1  0  0  0  0
  2 16  1  0  0  0  0
 15 16  1  0  0  0  0
  2 17  1  0  0  0  0
 17 18  4  0  0  0  0
 18 19  1  0  0  0  0
 18 20  4  0  0  0  0
 20 21  1  0  0  0  0
 20 22  4  0  0  0  0
 22 23  1  0  0  0  0
 22 24  4  0  0  0  0
 24 25  1  0  0  0  0
 25 26  1  0  0  0  0
 26 27  4  0  0  0  0
 27 28  1  0  0  0  0
 27 29  4  0  0  0  0
 29 30  4  0  0  0  0
 30 31  4  0  0  0  0
 26 32  4  0  0  0  0
 31 32  4  0  0  0  0
 32 33  1  0  0  0  0
 17 34  4  0  0  0  0
 24 34  4  0  0  0  0
 34 35  1  0  0  0  0
  1 36  1  0  0  0  0
  3 37  1  0  0  0  0
  3 38  1  0  0  0  0
  5 39  1  0  0  0  0
  5 40  1  0  0  0  0
  7 41  1  0  0  0  0
 10 42  1  0  0  0  0
 11 43  1  0  0  0  0
 14 44  1  0  0  0  0
 14 45  1  0  0  0  0
 15 46  1  0  0  0  0
 15 47  1  0  0  0  0
 25 48  1  0  0  0  0
 29 49  1  0  0  0  0
 30 50  1  0  0  0  0
 31 51  1  0  0  0  0
 59 60  1  0  0  0  0
 62 63  1  0  0  0  0
 58 65  1  0  0  0  0
 61 66  1  0  0  0  0
 65 68  1  0  0  0  0
 67 70  1  0  0  0  0
 69 71  1  0  0  0  0
 59 72  1  0  0  0  0
 62 73  1  0  0  0  0
 58 74  1  0  0  0  0
 71 75  1  0  0  0  0
 73 76  1  0  0  0  0
 57 78  1  0  0  0  0
 65 79  1  0  0  0  0
 74 79  1  0  0  0  0
 78 81  1  0  0  0  0
 55 82  1  0  0  0  0
 77 82  1  0  0  0  0
 79 84  1  0  0  0  0
 66 85  1  0  0  0  0
 72 86  1  0  0  0  0
 85 86  1  0  0  0  0
 67 87  1  0  0  0  0
 74 87  1  0  0  0  0
 70 88  1  0  0  0  0
 56 89  1  0  0  0  0
 63 90  1  0  0  0  0
 67 90  1  0  0  0  0
 58 91  1  0  0  0  0
 76 91  1  0  0  0  0
 90 91  1  0  0  0  0
 56 92  1  0  0  0  0
 89 92  1  0  0  0  0
 68 93  1  0  0  0  0
 75 93  1  0  0  0  0
 81 94  1  0  0  0  0
 83 94  1  0  0  0  0
 86 94  1  0  0  0  0
 78 95  1  0  0  0  0
 89 95  1  0  0  0  0
 72 96  1  0  0  0  0
 92 97  1  0  0  0  0
 52 98  1  0  0  0  0
 53 98  1  0  0  0  0
 77 98  1  0  0  0  0
 54 99  1  0  0  0  0
 88 99  1  0  0  0  0
 60100  1  0  0  0  0
 64100  1  0  0  0  0
 88100  1  0  0  0  0
 62101  1  0  0  0  0
 73101  1  0  0  0  0
 60102  1  0  0  0  0
 70102  1  0  0  0  0
 63103  1  0  0  0  0
 96103  1  0  0  0  0
102103  1  0  0  0  0
 52104  1  0  0  0  0
 97104  1  0  0  0  0
 61105  1  0  0  0  0
 97105  1  0  0  0  0
 71106  1  0  0  0  0
 80107  1  0  0  0  0
 93107  1  0  0  0  0
 81108  1  0  0  0  0
 95108  1  0  0  0  0
 83109  1  0  0  0  0
 96109  1  0  0  0  0
101109  1  0  0  0  0
 53110  1  0  0  0  0
 54110  1  0  0  0  0
 77110  1  0  0  0  0
 53111  1  0  0  0  0
 84111  1  0  0  0  0
106111  1  0  0  0  0
 55112  1  0  0  0  0
 66112  1  0  0  0  0
 68113  1  0  0  0  0
 76113  1  0  0  0  0
107113  1  0  0  0  0
 55114  1  0  0  0  0
 64114  1  0  0  0  0
 99114  1  0  0  0  0
 57115  1  0  0  0  0
 80115  1  0  0  0  0
 59116  1  0  0  0  0
 64116  1  0  0  0  0
112116  1  0  0  0  0
 61117  1  0  0  0  0
 85117  1  0  0  0  0
108117  1  0  0  0  0
 56118  1  0  0  0  0
 69118  1  0  0  0  0
 75119  1  0  0  0  0
 80119  1  0  0  0  0
118119  1  0  0  0  0
 57120  1  0  0  0  0
 83120  1  0  0  0  0
115120  1  0  0  0  0
 52121  1  0  0  0  0
 69121  1  0  0  0  0
106121  1  0  0  0  0
 54122  1  0  0  0  0
 84122  1  0  0  0  0
 87122  1  0  0  0  0
 82123  1  0  0  0  0
104123  1  0  0  0  0
105123  1  0  0  0  0
M  END
