 xtb: 6.7.1pre (5071a88)
          08312622223D

132172  0     0  0            999 V2000
   -6.2574   -1.9207   13.6883 C   0  0  0  0  0  0  0  0  0  0  0  0
   -5.8564   -0.7721   12.7951 C   0  0  0  0  0  0  0  0  0  0  0  0
   -6.7164   -0.2095   12.1200 O   0  0  0  0  0  0  0  0  0  0  0  0
   -4.4499   -0.3816   12.7788 C   0  0  0  0  0  0  0  0  0  0  0  0
   -3.5559   -0.3314   13.8564 C   0  0  0  0  0  0  0  0  0  0  0  0
   -3.8360   -0.6320   15.2904 C   0  0  0  0  0  0  0  0  0  0  0  0
   -2.2966    0.1003   13.3506 C   0  0  0  0  0  0  0  0  0  0  0  0
   -1.0320    0.3480   13.8722 C   0  0  0  0  0  0  0  0  0  0  0  0
   -0.0424    0.7735   13.0602 N   0  0  0  0  0  0  0  0  0  0  0  0
   -0.2877    0.9347   11.7463 C   0  0  0  0  0  0  0  0  0  0  0  0
    0.7096    1.4075   10.8920 N   0  0  0  0  0  0  0  0  0  0  0  0
    2.0639    1.0377   10.8997 C   0  0  0  0  0  0  0  0  0  0  0  0
    2.9320    1.7379   10.0669 C   0  0  0  0  0  0  0  0  0  0  0  0
    4.2904    1.4066   10.0376 C   0  0  0  0  0  0  0  0  0  0  0  0
    4.8008    0.3846   10.8410 C   0  0  0  0  0  0  0  0  0  0  0  0
    6.1636    0.0522   10.7968 N   0  0  0  0  0  0  0  0  0  0  0  0
    7.0797    1.1886   11.0619 C   0  0  0  0  0  0  0  0  0  0  0  0
    8.5495    0.7922   10.7860 C   0  0  0  0  0  0  0  0  0  0  0  0
    8.9860   -0.4220   11.5040 N   0  0  0  0  0  0  0  0  0  0  0  0
    8.0641   -1.5208   11.1520 C   0  0  0  0  0  0  0  0  0  0  0  0
    6.5835   -1.2015   11.4599 C   0  0  0  0  0  0  0  0  0  0  0  0
    3.8424   -0.2662   11.6201 C   0  0  0  0  0  0  0  0  0  0  0  0
    2.5173    0.0330   11.6690 N   0  0  0  0  0  0  0  0  0  0  0  0
   -1.4829    0.7483   11.1583 N   0  0  0  0  0  0  0  0  0  0  0  0
   -2.4443    0.3253   11.9979 C   0  0  0  0  0  0  0  0  0  0  0  0
   -3.7499    0.0425   11.6512 N   0  0  0  0  0  0  0  0  0  0  0  0
   -4.2211    0.1564   10.2800 C   0  0  0  0  0  0  0  0  0  0  0  0
   -4.8517   -1.0959    9.6609 C   0  0  0  0  0  0  0  0  0  0  0  0
   -5.6507   -0.5315    8.4950 C   0  0  0  0  0  0  0  0  0  0  0  0
   -6.2515    0.7500    9.0558 C   0  0  0  0  0  0  0  0  0  0  0  0
   -5.1942    1.3140   10.0060 C   0  0  0  0  0  0  0  0  0  0  0  0
   -5.4651   -2.6726   13.7354 H   0  0  0  0  0  0  0  0  0  0  0  0
   -6.4955   -1.5524   14.6884 H   0  0  0  0  0  0  0  0  0  0  0  0
   -7.1461   -2.4042   13.2705 H   0  0  0  0  0  0  0  0  0  0  0  0
   -3.0455   -0.2476   15.9426 H   0  0  0  0  0  0  0  0  0  0  0  0
   -3.9039   -1.7124   15.4492 H   0  0  0  0  0  0  0  0  0  0  0  0
   -4.7727   -0.1644   15.6093 H   0  0  0  0  0  0  0  0  0  0  0  0
   -0.7745    0.2224   14.9165 H   0  0  0  0  0  0  0  0  0  0  0  0
    0.3210    1.3900    9.9604 H   0  0  0  0  0  0  0  0  0  0  0  0
    2.5636    2.5442    9.4412 H   0  0  0  0  0  0  0  0  0  0  0  0
    4.9380    1.9465    9.3531 H   0  0  0  0  0  0  0  0  0  0  0  0
    6.9769    1.5033   12.1089 H   0  0  0  0  0  0  0  0  0  0  0  0
    6.8509    2.0533   10.4301 H   0  0  0  0  0  0  0  0  0  0  0  0
    9.2045    1.6217   11.0749 H   0  0  0  0  0  0  0  0  0  0  0  0
    8.6931    0.6395    9.7089 H   0  0  0  0  0  0  0  0  0  0  0  0
    8.9014   -0.2453   12.5052 H   0  0  0  0  0  0  0  0  0  0  0  0
    8.3615   -2.4168   11.7078 H   0  0  0  0  0  0  0  0  0  0  0  0
    8.1792   -1.7578   10.0869 H   0  0  0  0  0  0  0  0  0  0  0  0
    5.9761   -2.0422   11.1030 H   0  0  0  0  0  0  0  0  0  0  0  0
    6.4556   -1.1152   12.5468 H   0  0  0  0  0  0  0  0  0  0  0  0
    4.1069   -1.0842   12.2819 H   0  0  0  0  0  0  0  0  0  0  0  0
   -3.3344    0.3624    9.6641 H   0  0  0  0  0  0  0  0  0  0  0  0
   -5.5157   -1.6286   10.3456 H   0  0  0  0  0  0  0  0  0  0  0  0
   -4.0924   -1.8105    9.3261 H   0  0  0  0  0  0  0  0  0  0  0  0
   -6.4154   -1.2277    8.1389 H   0  0  0  0  0  0  0  0  0  0  0  0
   -4.9832   -0.2990    7.6567 H   0  0  0  0  0  0  0  0  0  0  0  0
   -6.5154    1.4603    8.2665 H   0  0  0  0  0  0  0  0  0  0  0  0
   -7.1676    0.5193    9.6109 H   0  0  0  0  0  0  0  0  0  0  0  0
   -5.6518    1.7328   10.9074 H   0  0  0  0  0  0  0  0  0  0  0  0
   -4.6557    2.1377    9.5212 H   0  0  0  0  0  0  0  0  0  0  0  0
    3.4592   -1.4546    1.6280 B   0  0  0  0  0  0  0  0  0  0  0  0
    3.4564    1.1299    0.9400 N   0  0  0  0  0  0  0  0  0  0  0  0
    2.5399    2.3625   -1.2610 B   0  0  0  0  0  0  0  0  0  0  0  0
    2.2931   -0.6416   -2.7306 N   0  0  0  0  0  0  0  0  0  0  0  0
    0.6905   -3.5611    2.7027 B   0  0  0  0  0  0  0  0  0  0  0  0
   -2.9397   -2.6548    1.7095 N   0  0  0  0  0  0  0  0  0  0  0  0
   -1.0382    4.0851    1.8312 B   0  0  0  0  0  0  0  0  0  0  0  0
   -0.6193    0.0177   -3.9419 N   0  0  0  0  0  0  0  0  0  0  0  0
   -0.4737    1.4453   -4.0917 B   0  0  0  0  0  0  0  0  0  0  0  0
    1.2096   -3.7868   -1.7394 N   0  0  0  0  0  0  0  0  0  0  0  0
   -3.8445    2.2094   -0.4937 B   0  0  0  0  0  0  0  0  0  0  0  0
   -2.7729    2.7636   -1.2118 N   0  0  0  0  0  0  0  0  0  0  0  0
    1.4057    0.8181   -4.8893 B   0  0  0  0  0  0  0  0  0  0  0  0
   -0.2358    3.3642    2.8335 N   0  0  0  0  0  0  0  0  0  0  0  0
    0.8983   -2.8798   -2.8138 B   0  0  0  0  0  0  0  0  0  0  0  0
   -0.4918    3.7666   -1.0101 N   0  0  0  0  0  0  0  0  0  0  0  0
   -0.8060    2.1823    3.2819 B   0  0  0  0  0  0  0  0  0  0  0  0
    1.6561   -1.2744    3.5036 N   0  0  0  0  0  0  0  0  0  0  0  0
   -0.2485    3.4699   -2.3799 B   0  0  0  0  0  0  0  0  0  0  0  0
    1.3087    0.0689    3.8170 N   0  0  0  0  0  0  0  0  0  0  0  0
   -1.5974   -0.5599   -3.0847 B   0  0  0  0  0  0  0  0  0  0  0  0
   -3.8325    1.7768    0.8316 N   0  0  0  0  0  0  0  0  0  0  0  0
    0.3376    4.4960    1.1839 B   0  0  0  0  0  0  0  0  0  0  0  0
    0.0433   -0.0140    4.4567 N   0  0  0  0  0  0  0  0  0  0  0  0
   -2.7088    2.2268    1.6012 B   0  0  0  0  0  0  0  0  0  0  0  0
    3.7727   -0.1326   -0.7655 N   0  0  0  0  0  0  0  0  0  0  0  0
   -2.2534   -3.6394    1.0085 B   0  0  0  0  0  0  0  0  0  0  0  0
    1.0558    3.7334    2.2357 N   0  0  0  0  0  0  0  0  0  0  0  0
   -1.8256   -0.7775    3.2198 B   0  0  0  0  0  0  0  0  0  0  0  0
   -2.4368   -3.6019   -0.4508 N   0  0  0  0  0  0  0  0  0  0  0  0
    3.0187   -1.0737   -1.5028 B   0  0  0  0  0  0  0  0  0  0  0  0
   -3.1580   -1.2526   -0.3843 N   0  0  0  0  0  0  0  0  0  0  0  0
    2.0347    2.9223    1.5617 B   0  0  0  0  0  0  0  0  0  0  0  0
   -0.5074   -2.9001   -2.4328 N   0  0  0  0  0  0  0  0  0  0  0  0
   -1.6735   -2.1129   -2.4916 B   0  0  0  0  0  0  0  0  0  0  0  0
    0.5901    3.9646   -0.1102 N   0  0  0  0  0  0  0  0  0  0  0  0
    1.0903    2.9596   -3.1825 B   0  0  0  0  0  0  0  0  0  0  0  0
    0.0774   -4.3592    1.7213 N   0  0  0  0  0  0  0  0  0  0  0  0
   -1.7840    3.4524   -0.4082 B   0  0  0  0  0  0  0  0  0  0  0  0
   -2.0135    3.4185    1.0316 N   0  0  0  0  0  0  0  0  0  0  0  0
    1.4659   -4.2121    1.4991 B   0  0  0  0  0  0  0  0  0  0  0  0
   -0.7980    1.0642    4.1946 N   0  0  0  0  0  0  0  0  0  0  0  0
   -2.6662   -2.4021   -1.1753 B   0  0  0  0  0  0  0  0  0  0  0  0
   -1.0744   -4.4843    0.9912 N   0  0  0  0  0  0  0  0  0  0  0  0
   -2.5037    0.4914   -2.1091 B   0  0  0  0  0  0  0  0  0  0  0  0
    2.3527   -3.8873    0.4531 N   0  0  0  0  0  0  0  0  0  0  0  0
    3.9123   -0.2024    0.7259 B   0  0  0  0  0  0  0  0  0  0  0  0
    1.9285    1.9570   -2.4651 N   0  0  0  0  0  0  0  0  0  0  0  0
    1.0012    2.2544   -4.6225 B   0  0  0  0  0  0  0  0  0  0  0  0
   -4.1860    0.8290   -0.3475 N   0  0  0  0  0  0  0  0  0  0  0  0
   -1.3389    2.4537   -3.1149 B   0  0  0  0  0  0  0  0  0  0  0  0
   -2.3596    1.9326   -2.3058 N   0  0  0  0  0  0  0  0  0  0  0  0
    3.0731   -2.6455    0.6011 B   0  0  0  0  0  0  0  0  0  0  0  0
    2.3352   -3.6737   -0.9709 N   0  0  0  0  0  0  0  0  0  0  0  0
    2.2179    0.5458    2.8084 B   0  0  0  0  0  0  0  0  0  0  0  0
   -2.0264    0.6119    3.6015 N   0  0  0  0  0  0  0  0  0  0  0  0
   -1.1017   -4.1838   -0.4410 B   0  0  0  0  0  0  0  0  0  0  0  0
   -3.2181    0.0417   -0.9586 N   0  0  0  0  0  0  0  0  0  0  0  0
    3.4478    1.2586   -0.5141 B   0  0  0  0  0  0  0  0  0  0  0  0
    2.5821    1.6330    1.9365 N   0  0  0  0  0  0  0  0  0  0  0  0
    1.4721   -1.5550   -3.5156 B   0  0  0  0  0  0  0  0  0  0  0  0
   -2.1026    1.7542    2.7608 N   0  0  0  0  0  0  0  0  0  0  0  0
    2.0408    0.7119   -3.2115 B   0  0  0  0  0  0  0  0  0  0  0  0
   -2.7209   -1.3417    2.3206 N   0  0  0  0  0  0  0  0  0  0  0  0
    0.6586   -0.5389   -4.4869 B   0  0  0  0  0  0  0  0  0  0  0  0
   -0.1687   -3.7594   -1.3565 N   0  0  0  0  0  0  0  0  0  0  0  0
    0.4856   -2.1056    3.4338 B   0  0  0  0  0  0  0  0  0  0  0  0
   -0.5873   -1.2050    3.8245 N   0  0  0  0  0  0  0  0  0  0  0  0
   -3.2244   -1.4514    1.0003 B   0  0  0  0  0  0  0  0  0  0  0  0
    2.6713   -0.8555    2.6211 N   0  0  0  0  0  0  0  0  0  0  0  0
    1.8786    3.3393   -0.1064 B   0  0  0  0  0  0  0  0  0  0  0  0
    2.8769   -2.3318   -0.7936 N   0  0  0  0  0  0  0  0  0  0  0  0
  1  2  1  0  0  0  0
  2  3  2  0  0  0  0
  2  4  1  0  0  0  0
  4  5  4  0  0  0  0
  5  6  1  0  0  0  0
  5  7  4  0  0  0  0
  7  8  4  0  0  0  0
  8  9  4  0  0  0  0
  9 10  4  0  0  0  0
 10 11  1  0  0  0  0
 11 12  1  0  0  0  0
 12 13  4  0  0  0  0
 13 14  4  0  0  0  0
 14 15  4  0  0  0  0
 15 16  1  0  0  0  0
 16 17  1  0  0  0  0
 17 18  1  0  0  0  0
 18 19  1  0  0  0  0
 19 20  1  0  0  0  0
 16 21  1  0  0  0  0
 20 21  1  0  0  0  0
 15 22  4  0  0  0  0
 12 23  4  0  0  0  0
 22 23  4  0  0  0  0
 10 24  4  0  0  0  0
  7 25  4  0  0  0  0
 24 25  4  0  0  0  0
  4 26  1  0  0  0  0
 25 26  1  0  0  0  0
 26 27  1  0  0  0  0
 27 28  1  0  0  0  0
 28 29  1  0  0  0  0
 29 30  1  0  0  0  0
 27 31  1  0  0  0  0
 30 31  1  0  0  0  0
  1 32  1  0  0  0  0
  1 33  1  0  0  0  0
  1 34  1  0  0  0  0
  6 35  1  0  0  0  0
  6 36  1  0  0  0  0
  6 37  1  0  0  0  0
  8 38  1  0  0  0  0
 11 39  1  0  0  0  0
 13 40  1  0  0  0  0
 14 41  1  0  0  0  0
 17 42  1  0  0  0  0
 17 43  1  0  0  0  0
 18 44  1  0  0  0  0
 18 45  1  0  0  0  0
 19 46  1  0  0  0  0
 20 47  1  0  0  0  0
 20 48  1  0  0  0  0
 21 49  1  0  0  0  0
 21 50  1  0  0  0  0
 22 51  1  0  0  0  0
 27 52  1  0  0  0  0
 28 53  1  0  0  0  0
 28 54  1  0  0  0  0
 29 55  1  0  0  0  0
 29 56  1  0  0  0  0
 30 57  1  0  0  0  0
 30 58  1  0  0  0  0
 31 59  1  0  0  0  0
 31 60  1  0  0  0  0
 68 69  1  0  0  0  0
 71 72  1  0  0  0  0
 67 74  1  0  0  0  0
 70 75  1  0  0  0  0
 74 77  1  0  0  0  0
 76 79  1  0  0  0  0
 78 80  1  0  0  0  0
 68 81  1  0  0  0  0
 71 82  1  0  0  0  0
 67 83  1  0  0  0  0
 80 84  1  0  0  0  0
 82 85  1  0  0  0  0
 66 87  1  0  0  0  0
 74 88  1  0  0  0  0
 83 88  1  0  0  0  0
 87 90  1  0  0  0  0
 64 91  1  0  0  0  0
 86 91  1  0  0  0  0
 88 93  1  0  0  0  0
 75 94  1  0  0  0  0
 81 95  1  0  0  0  0
 94 95  1  0  0  0  0
 76 96  1  0  0  0  0
 83 96  1  0  0  0  0
 79 97  1  0  0  0  0
 65 98  1  0  0  0  0
 72 99  1  0  0  0  0
 76 99  1  0  0  0  0
 67100  1  0  0  0  0
 85100  1  0  0  0  0
 99100  1  0  0  0  0
 65101  1  0  0  0  0
 98101  1  0  0  0  0
 77102  1  0  0  0  0
 84102  1  0  0  0  0
 90103  1  0  0  0  0
 92103  1  0  0  0  0
 95103  1  0  0  0  0
 87104  1  0  0  0  0
 98104  1  0  0  0  0
 81105  1  0  0  0  0
101106  1  0  0  0  0
 61107  1  0  0  0  0
 62107  1  0  0  0  0
 86107  1  0  0  0  0
 63108  1  0  0  0  0
 97108  1  0  0  0  0
 69109  1  0  0  0  0
 73109  1  0  0  0  0
 97109  1  0  0  0  0
 71110  1  0  0  0  0
 82110  1  0  0  0  0
 69111  1  0  0  0  0
 79111  1  0  0  0  0
 72112  1  0  0  0  0
105112  1  0  0  0  0
111112  1  0  0  0  0
 61113  1  0  0  0  0
106113  1  0  0  0  0
 70114  1  0  0  0  0
106114  1  0  0  0  0
 80115  1  0  0  0  0
 89116  1  0  0  0  0
102116  1  0  0  0  0
 90117  1  0  0  0  0
104117  1  0  0  0  0
 92118  1  0  0  0  0
105118  1  0  0  0  0
110118  1  0  0  0  0
 62119  1  0  0  0  0
 63119  1  0  0  0  0
 86119  1  0  0  0  0
 62120  1  0  0  0  0
 93120  1  0  0  0  0
115120  1  0  0  0  0
 64121  1  0  0  0  0
 75121  1  0  0  0  0
 77122  1  0  0  0  0
 85122  1  0  0  0  0
116122  1  0  0  0  0
 64123  1  0  0  0  0
 73123  1  0  0  0  0
108123  1  0  0  0  0
 66124  1  0  0  0  0
 89124  1  0  0  0  0
 68125  1  0  0  0  0
 73125  1  0  0  0  0
121125  1  0  0  0  0
 70126  1  0  0  0  0
 94126  1  0  0  0  0
117126  1  0  0  0  0
 65127  1  0  0  0  0
 78127  1  0  0  0  0
 84128  1  0  0  0  0
 89128  1  0  0  0  0
127128  1  0  0  0  0
 66129  1  0  0  0  0
 92129  1  0  0  0  0
124129  1  0  0  0  0
 61130  1  0  0  0  0
 78130  1  0  0  0  0
115130  1  0  0  0  0
 63131  1  0  0  0  0
 93131  1  0  0  0  0
 96131  1  0  0  0  0
 91132  1  0  0  0  0
113132  1  0  0  0  0
114132  1  0  0  0  0
M  END
