 xtb: 6.7.1pre (5071a88)
          08312618353D

132108  0     0  0            999 V2000
   -6.2574   -1.9207    2.1826 C   0  0  0  0  0  0  0  0  0  0  0  0
   -5.8564   -0.7721    1.2894 C   0  0  0  0  0  0  0  0  0  0  0  0
   -6.7164   -0.2095    0.6143 O   0  0  0  0  0  0  0  0  0  0  0  0
   -4.4499   -0.3816    1.2731 C   0  0  0  0  0  0  0  0  0  0  0  0
   -3.5559   -0.3314    2.3507 C   0  0  0  0  0  0  0  0  0  0  0  0
   -3.8360   -0.6320    3.7847 C   0  0  0  0  0  0  0  0  0  0  0  0
   -2.2966    0.1003    1.8449 C   0  0  0  0  0  0  0  0  0  0  0  0
   -1.0320    0.3480    2.3665 C   0  0  0  0  0  0  0  0  0  0  0  0
   -0.0424    0.7735    1.5544 N   0  0  0  0  0  0  0  0  0  0  0  0
   -0.2877    0.9347    0.2406 C   0  0  0  0  0  0  0  0  0  0  0  0
    0.7096    1.4075   -0.6137 N   0  0  0  0  0  0  0  0  0  0  0  0
    2.0639    1.0377   -0.6060 C   0  0  0  0  0  0  0  0  0  0  0  0
    2.9320    1.7379   -1.4388 C   0  0  0  0  0  0  0  0  0  0  0  0
    4.2904    1.4066   -1.4682 C   0  0  0  0  0  0  0  0  0  0  0  0
    4.8008    0.3846   -0.6647 C   0  0  0  0  0  0  0  0  0  0  0  0
    6.1636    0.0522   -0.7089 N   0  0  0  0  0  0  0  0  0  0  0  0
    7.0797    1.1886   -0.4438 C   0  0  0  0  0  0  0  0  0  0  0  0
    8.5495    0.7922   -0.7197 C   0  0  0  0  0  0  0  0  0  0  0  0
    8.9860   -0.4220   -0.0017 N   0  0  0  0  0  0  0  0  0  0  0  0
    8.0641   -1.5208   -0.3537 C   0  0  0  0  0  0  0  0  0  0  0  0
    6.5835   -1.2015   -0.0458 C   0  0  0  0  0  0  0  0  0  0  0  0
    3.8424   -0.2662    0.1144 C   0  0  0  0  0  0  0  0  0  0  0  0
    2.5173    0.0330    0.1633 N   0  0  0  0  0  0  0  0  0  0  0  0
   -1.4829    0.7483   -0.3474 N   0  0  0  0  0  0  0  0  0  0  0  0
   -2.4443    0.3253    0.4922 C   0  0  0  0  0  0  0  0  0  0  0  0
   -3.7499    0.0425    0.1455 N   0  0  0  0  0  0  0  0  0  0  0  0
   -4.2211    0.1564   -1.2257 C   0  0  0  0  0  0  0  0  0  0  0  0
   -4.8517   -1.0959   -1.8448 C   0  0  0  0  0  0  0  0  0  0  0  0
   -5.6507   -0.5315   -3.0108 C   0  0  0  0  0  0  0  0  0  0  0  0
   -6.2515    0.7500   -2.4499 C   0  0  0  0  0  0  0  0  0  0  0  0
   -5.1942    1.3140   -1.4997 C   0  0  0  0  0  0  0  0  0  0  0  0
   -5.4651   -2.6726    2.2297 H   0  0  0  0  0  0  0  0  0  0  0  0
   -6.4955   -1.5524    3.1827 H   0  0  0  0  0  0  0  0  0  0  0  0
   -7.1461   -2.4042    1.7648 H   0  0  0  0  0  0  0  0  0  0  0  0
   -3.0455   -0.2476    4.4369 H   0  0  0  0  0  0  0  0  0  0  0  0
   -3.9039   -1.7124    3.9435 H   0  0  0  0  0  0  0  0  0  0  0  0
   -4.7727   -0.1644    4.1036 H   0  0  0  0  0  0  0  0  0  0  0  0
   -0.7745    0.2224    3.4108 H   0  0  0  0  0  0  0  0  0  0  0  0
    0.3210    1.3900   -1.5454 H   0  0  0  0  0  0  0  0  0  0  0  0
    2.5636    2.5442   -2.0645 H   0  0  0  0  0  0  0  0  0  0  0  0
    4.9380    1.9465   -2.1526 H   0  0  0  0  0  0  0  0  0  0  0  0
    6.9769    1.5033    0.6032 H   0  0  0  0  0  0  0  0  0  0  0  0
    6.8509    2.0533   -1.0756 H   0  0  0  0  0  0  0  0  0  0  0  0
    9.2045    1.6217   -0.4308 H   0  0  0  0  0  0  0  0  0  0  0  0
    8.6931    0.6395   -1.7968 H   0  0  0  0  0  0  0  0  0  0  0  0
    8.9014   -0.2453    0.9995 H   0  0  0  0  0  0  0  0  0  0  0  0
    8.3615   -2.4168    0.2021 H   0  0  0  0  0  0  0  0  0  0  0  0
    8.1792   -1.7578   -1.4188 H   0  0  0  0  0  0  0  0  0  0  0  0
    5.9761   -2.0422   -0.4027 H   0  0  0  0  0  0  0  0  0  0  0  0
    6.4556   -1.1152    1.0411 H   0  0  0  0  0  0  0  0  0  0  0  0
    4.1069   -1.0842    0.7762 H   0  0  0  0  0  0  0  0  0  0  0  0
   -3.3344    0.3624   -1.8416 H   0  0  0  0  0  0  0  0  0  0  0  0
   -5.5157   -1.6286   -1.1601 H   0  0  0  0  0  0  0  0  0  0  0  0
   -4.0924   -1.8105   -2.1797 H   0  0  0  0  0  0  0  0  0  0  0  0
   -6.4154   -1.2277   -3.3668 H   0  0  0  0  0  0  0  0  0  0  0  0
   -4.9832   -0.2990   -3.8490 H   0  0  0  0  0  0  0  0  0  0  0  0
   -6.5154    1.4603   -3.2393 H   0  0  0  0  0  0  0  0  0  0  0  0
   -7.1676    0.5193   -1.8948 H   0  0  0  0  0  0  0  0  0  0  0  0
   -5.6518    1.7328   -0.5983 H   0  0  0  0  0  0  0  0  0  0  0  0
   -4.6557    2.1377   -1.9845 H   0  0  0  0  0  0  0  0  0  0  0  0
    2.1012    0.0000    3.3450 B   0  0  0  0  0  0  0  0  0  0  0  0
   -2.1012    0.0000    3.3450 B   0  0  0  0  0  0  0  0  0  0  0  0
    0.0000    2.1012    3.3450 B   0  0  0  0  0  0  0  0  0  0  0  0
    0.0000   -2.1012    3.3450 B   0  0  0  0  0  0  0  0  0  0  0  0
    3.3450    2.1012    0.0000 B   0  0  0  0  0  0  0  0  0  0  0  0
    3.3450   -2.1012    0.0000 B   0  0  0  0  0  0  0  0  0  0  0  0
    3.3450    0.0000    2.1012 B   0  0  0  0  0  0  0  0  0  0  0  0
    3.3450    0.0000   -2.1012 B   0  0  0  0  0  0  0  0  0  0  0  0
   -3.3450    2.1012    0.0000 B   0  0  0  0  0  0  0  0  0  0  0  0
   -3.3450   -2.1012    0.0000 B   0  0  0  0  0  0  0  0  0  0  0  0
   -3.3450    0.0000    2.1012 B   0  0  0  0  0  0  0  0  0  0  0  0
   -3.3450    0.0000   -2.1012 B   0  0  0  0  0  0  0  0  0  0  0  0
    2.1012    0.0000   -3.3450 B   0  0  0  0  0  0  0  0  0  0  0  0
   -2.1012    0.0000   -3.3450 B   0  0  0  0  0  0  0  0  0  0  0  0
    0.0000    2.1012   -3.3450 B   0  0  0  0  0  0  0  0  0  0  0  0
    0.0000   -2.1012   -3.3450 B   0  0  0  0  0  0  0  0  0  0  0  0
    0.0000    3.3450    2.1012 B   0  0  0  0  0  0  0  0  0  0  0  0
    0.0000    3.3450   -2.1012 B   0  0  0  0  0  0  0  0  0  0  0  0
    0.0000   -3.3450    2.1012 B   0  0  0  0  0  0  0  0  0  0  0  0
    0.0000   -3.3450   -2.1012 B   0  0  0  0  0  0  0  0  0  0  0  0
    2.1012    3.3450    0.0000 B   0  0  0  0  0  0  0  0  0  0  0  0
   -2.1012    3.3450    0.0000 B   0  0  0  0  0  0  0  0  0  0  0  0
    2.1012   -3.3450    0.0000 B   0  0  0  0  0  0  0  0  0  0  0  0
   -2.1012   -3.3450    0.0000 B   0  0  0  0  0  0  0  0  0  0  0  0
    1.4800    1.4800    3.5800 B   0  0  0  0  0  0  0  0  0  0  0  0
   -1.4800    1.4800    3.5800 B   0  0  0  0  0  0  0  0  0  0  0  0
    1.4800   -1.4800    3.5800 B   0  0  0  0  0  0  0  0  0  0  0  0
   -1.4800   -1.4800    3.5800 B   0  0  0  0  0  0  0  0  0  0  0  0
    3.5800    1.4800    1.4800 B   0  0  0  0  0  0  0  0  0  0  0  0
    3.5800   -1.4800    1.4800 B   0  0  0  0  0  0  0  0  0  0  0  0
    3.5800    1.4800   -1.4800 B   0  0  0  0  0  0  0  0  0  0  0  0
    3.5800   -1.4800   -1.4800 B   0  0  0  0  0  0  0  0  0  0  0  0
   -3.5800    1.4800    1.4800 B   0  0  0  0  0  0  0  0  0  0  0  0
   -3.5800   -1.4800    1.4800 B   0  0  0  0  0  0  0  0  0  0  0  0
   -3.5800    1.4800   -1.4800 B   0  0  0  0  0  0  0  0  0  0  0  0
   -3.5800   -1.4800   -1.4800 B   0  0  0  0  0  0  0  0  0  0  0  0
    2.1012    0.0000    3.9200 N   0  0  0  0  0  0  0  0  0  0  0  0
   -2.1012    0.0000    3.9200 N   0  0  0  0  0  0  0  0  0  0  0  0
    0.0000    2.1012    3.9200 N   0  0  0  0  0  0  0  0  0  0  0  0
    0.0000   -2.1012    3.9200 N   0  0  0  0  0  0  0  0  0  0  0  0
    3.9200    2.1012    0.0000 N   0  0  0  0  0  0  0  0  0  0  0  0
    3.9200   -2.1012    0.0000 N   0  0  0  0  0  0  0  0  0  0  0  0
    3.9200    0.0000    2.1012 N   0  0  0  0  0  0  0  0  0  0  0  0
    3.9200    0.0000   -2.1012 N   0  0  0  0  0  0  0  0  0  0  0  0
   -3.9200    2.1012    0.0000 N   0  0  0  0  0  0  0  0  0  0  0  0
   -3.9200   -2.1012    0.0000 N   0  0  0  0  0  0  0  0  0  0  0  0
   -3.9200    0.0000    2.1012 N   0  0  0  0  0  0  0  0  0  0  0  0
   -3.9200    0.0000   -2.1012 N   0  0  0  0  0  0  0  0  0  0  0  0
    2.1012    0.0000   -3.9200 N   0  0  0  0  0  0  0  0  0  0  0  0
   -2.1012    0.0000   -3.9200 N   0  0  0  0  0  0  0  0  0  0  0  0
    0.0000    2.1012   -3.9200 N   0  0  0  0  0  0  0  0  0  0  0  0
    0.0000   -2.1012   -3.9200 N   0  0  0  0  0  0  0  0  0  0  0  0
    0.0000    3.9200    2.1012 N   0  0  0  0  0  0  0  0  0  0  0  0
    0.0000    3.9200   -2.1012 N   0  0  0  0  0  0  0  0  0  0  0  0
    0.0000   -3.9200    2.1012 N   0  0  0  0  0  0  0  0  0  0  0  0
    0.0000   -3.9200   -2.1012 N   0  0  0  0  0  0  0  0  0  0  0  0
    2.1012    3.9200    0.0000 N   0  0  0  0  0  0  0  0  0  0  0  0
   -2.1012    3.9200    0.0000 N   0  0  0  0  0  0  0  0  0  0  0  0
    2.1012   -3.9200    0.0000 N   0  0  0  0  0  0  0  0  0  0  0  0
   -2.1012   -3.9200    0.0000 N   0  0  0  0  0  0  0  0  0  0  0  0
    1.4800    1.4800    4.2200 N   0  0  0  0  0  0  0  0  0  0  0  0
   -1.4800    1.4800    4.2200 N   0  0  0  0  0  0  0  0  0  0  0  0
    1.4800   -1.4800    4.2200 N   0  0  0  0  0  0  0  0  0  0  0  0
   -1.4800   -1.4800    4.2200 N   0  0  0  0  0  0  0  0  0  0  0  0
    4.2200    1.4800    1.4800 N   0  0  0  0  0  0  0  0  0  0  0  0
    4.2200   -1.4800    1.4800 N   0  0  0  0  0  0  0  0  0  0  0  0
    4.2200    1.4800   -1.4800 N   0  0  0  0  0  0  0  0  0  0  0  0
    4.2200   -1.4800   -1.4800 N   0  0  0  0  0  0  0  0  0  0  0  0
   -4.2200    1.4800    1.4800 N   0  0  0  0  0  0  0  0  0  0  0  0
   -4.2200   -1.4800    1.4800 N   0  0  0  0  0  0  0  0  0  0  0  0
   -4.2200    1.4800   -1.4800 N   0  0  0  0  0  0  0  0  0  0  0  0
   -4.2200   -1.4800   -1.4800 N   0  0  0  0  0  0  0  0  0  0  0  0
  1  2  1  0  0  0  0
  2  3  4  0  0  0  0
  2  4  1  0  0  0  0
  5  6  1  0  0  0  0
  7  8  1  0  0  0  0
  8  9  1  0  0  0  0
  9 10  4  0  0  0  0
 10 11  1  0  0  0  0
 11 12  1  0  0  0  0
 12 13  1  0  0  0  0
 15 16  1  0  0  0  0
 16 17  1  0  0  0  0
 17 18  1  0  0  0  0
 18 19  1  0  0  0  0
 19 20  1  0  0  0  0
 16 21  1  0  0  0  0
 20 21  1  0  0  0  0
 15 22  4  0  0  0  0
 12 23  1  0  0  0  0
 22 23  4  0  0  0  0
 10 24  4  0  0  0  0
  7 25  1  0  0  0  0
 24 25  1  0  0  0  0
  4 26  1  0  0  0  0
 25 26  1  0  0  0  0
 26 27  1  0  0  0  0
 27 28  1  0  0  0  0
 28 29  1  0  0  0  0
 29 30  1  0  0  0  0
 27 31  1  0  0  0  0
 30 31  1  0  0  0  0
  1 32  1  0  0  0  0
  1 33  1  0  0  0  0
  1 34  1  0  0  0  0
  6 35  1  0  0  0  0
  6 36  1  0  0  0  0
  6 37  1  0  0  0  0
  8 38  1  0  0  0  0
 11 39  1  0  0  0  0
 13 40  1  0  0  0  0
 17 42  1  0  0  0  0
 17 43  1  0  0  0  0
 18 44  1  0  0  0  0
 18 45  1  0  0  0  0
 19 46  1  0  0  0  0
 20 47  1  0  0  0  0
 20 48  1  0  0  0  0
 21 49  1  0  0  0  0
 21 50  1  0  0  0  0
 28 53  1  0  0  0  0
 29 55  1  0  0  0  0
 29 56  1  0  0  0  0
 30 57  1  0  0  0  0
 30 58  1  0  0  0  0
 31 59  1  0  0  0  0
 31 60  1  0  0  0  0
  5 71  1  0  0  0  0
  7 71  1  0  0  0  0
 72 74  1  0  0  0  0
  8 86  1  0  0  0  0
 13 91  2  0  0  0  0
 14 91  1  0  0  0  0
 61 97  3  0  0  0  0
 62 98  3  0  0  0  0
 63 99  3  0  0  0  0
 64100  3  0  0  0  0
 65101  3  0  0  0  0
 66102  3  0  0  0  0
 67103  3  0  0  0  0
 68104  3  0  0  0  0
 69105  3  0  0  0  0
 70106  3  0  0  0  0
  4107  1  0  0  0  0
  5107  2  0  0  0  0
 71107  1  0  0  0  0
 27108  1  0  0  0  0
 72108  2  0  0  0  0
 73109  3  0  0  0  0
 74110  3  0  0  0  0
 75111  3  0  0  0  0
 76112  3  0  0  0  0
 77113  3  0  0  0  0
 78114  3  0  0  0  0
 79115  3  0  0  0  0
 80116  3  0  0  0  0
 81117  3  0  0  0  0
 82118  3  0  0  0  0
 83119  3  0  0  0  0
 84120  3  0  0  0  0
 85121  3  0  0  0  0
 86122  3  0  0  0  0
 87123  3  0  0  0  0
 88124  3  0  0  0  0
 89125  3  0  0  0  0
 90126  3  0  0  0  0
 14127  3  0  0  0  0
 91127  1  0  0  0  0
 92128  3  0  0  0  0
 93129  3  0  0  0  0
  4130  1  0  0  0  0
 94130  2  0  0  0  0
 27131  1  0  0  0  0
 31131  1  0  0  0  0
 60131  1  0  0  0  0
 95131  2  0  0  0  0
 28132  4  0  0  0  0
 54132  1  0  0  0  0
 96132  2  0  0  0  0
M  END
