 xtb: 6.7.1pre (5071a88)
          08312622243D

121160  0     0  0            999 V2000
   -1.8259   -7.3612    9.3756 N   0  0  0  0  0  0  0  0  0  0  0  0
   -1.1411   -6.3747    8.7427 C   0  0  0  0  0  0  0  0  0  0  0  0
   -1.1562   -6.2540    7.5365 O   0  0  0  0  0  0  0  0  0  0  0  0
   -0.3836   -5.4592    9.6455 C   0  0  0  0  0  0  0  0  0  0  0  0
    0.2454   -5.9105   10.8004 C   0  0  0  0  0  0  0  0  0  0  0  0
    0.9522   -5.0173   11.5851 C   0  0  0  0  0  0  0  0  0  0  0  0
    1.0239   -3.6815   11.2329 C   0  0  0  0  0  0  0  0  0  0  0  0
    0.4052   -3.2125   10.0782 C   0  0  0  0  0  0  0  0  0  0  0  0
   -0.2879   -4.1186    9.2890 C   0  0  0  0  0  0  0  0  0  0  0  0
    0.4622   -1.7575    9.6955 C   0  0  0  0  0  0  0  0  0  0  0  0
    1.9018   -1.2051    9.6320 C   0  0  0  0  0  0  0  0  0  0  0  0
    2.2085   -0.3094   10.8257 C   0  0  0  0  0  0  0  0  0  0  0  0
    1.2307    0.8644   10.8784 C   0  0  0  0  0  0  0  0  0  0  0  0
   -0.1140    0.4781   10.4671 N   0  0  0  0  0  0  0  0  0  0  0  0
   -1.1207    1.3515   11.0344 C   0  0  0  0  0  0  0  0  0  0  0  0
   -0.9096    2.7689   10.5789 C   0  0  0  0  0  0  0  0  0  0  0  0
   -0.8015    3.0269    9.1957 C   0  0  0  0  0  0  0  0  0  0  0  0
   -0.5931    4.2927    8.7300 C   0  0  0  0  0  0  0  0  0  0  0  0
   -0.4787    5.3729    9.6323 C   0  0  0  0  0  0  0  0  0  0  0  0
   -0.2548    6.6097    9.1449 N   0  0  0  0  0  0  0  0  0  0  0  0
   -0.1373    7.5984    9.9855 C   0  0  0  0  0  0  0  0  0  0  0  0
   -0.2382    7.4640   11.3821 C   0  0  0  0  0  0  0  0  0  0  0  0
   -0.4710    6.2203   11.9018 C   0  0  0  0  0  0  0  0  0  0  0  0
   -0.5949    5.1218   11.0266 C   0  0  0  0  0  0  0  0  0  0  0  0
   -0.8094    3.8024   11.4713 C   0  0  0  0  0  0  0  0  0  0  0  0
   -0.3818   -0.9264   10.6792 C   0  0  0  0  0  0  0  0  0  0  0  0
   -2.3780   -7.9942    8.8211 H   0  0  0  0  0  0  0  0  0  0  0  0
   -1.8832   -7.4171   10.3759 H   0  0  0  0  0  0  0  0  0  0  0  0
    0.2160   -6.9561   11.0715 H   0  0  0  0  0  0  0  0  0  0  0  0
    1.4520   -5.3639   12.4781 H   0  0  0  0  0  0  0  0  0  0  0  0
    1.5804   -3.0031   11.8609 H   0  0  0  0  0  0  0  0  0  0  0  0
   -0.7666   -3.7959    8.3766 H   0  0  0  0  0  0  0  0  0  0  0  0
    0.0124   -1.6459    8.7062 H   0  0  0  0  0  0  0  0  0  0  0  0
    2.0157   -0.6156    8.7217 H   0  0  0  0  0  0  0  0  0  0  0  0
    2.6150   -2.0307    9.5886 H   0  0  0  0  0  0  0  0  0  0  0  0
    2.1461   -0.8848   11.7509 H   0  0  0  0  0  0  0  0  0  0  0  0
    3.2265    0.0770   10.7535 H   0  0  0  0  0  0  0  0  0  0  0  0
    1.2267    1.2836   11.9003 H   0  0  0  0  0  0  0  0  0  0  0  0
    1.5652    1.6565   10.1996 H   0  0  0  0  0  0  0  0  0  0  0  0
   -2.0994    1.0083   10.6811 H   0  0  0  0  0  0  0  0  0  0  0  0
   -1.1271    1.3145   12.1415 H   0  0  0  0  0  0  0  0  0  0  0  0
   -0.8752    2.1915    8.5173 H   0  0  0  0  0  0  0  0  0  0  0  0
   -0.5063    4.5030    7.6754 H   0  0  0  0  0  0  0  0  0  0  0  0
    0.0502    8.5709    9.5480 H   0  0  0  0  0  0  0  0  0  0  0  0
   -0.1323    8.3312   12.0161 H   0  0  0  0  0  0  0  0  0  0  0  0
   -0.5586    6.0609   12.9683 H   0  0  0  0  0  0  0  0  0  0  0  0
   -0.8903    3.6204   12.5352 H   0  0  0  0  0  0  0  0  0  0  0  0
   -0.1861   -1.2413   11.7199 H   0  0  0  0  0  0  0  0  0  0  0  0
   -1.4402   -1.1139   10.4801 H   0  0  0  0  0  0  0  0  0  0  0  0
    3.4517   -1.4612    1.6847 B   0  0  0  0  0  0  0  0  0  0  0  0
    3.4557    1.1225    0.9957 N   0  0  0  0  0  0  0  0  0  0  0  0
    2.5443    2.3568   -1.2065 B   0  0  0  0  0  0  0  0  0  0  0  0
    2.2941   -0.6459   -2.6771 N   0  0  0  0  0  0  0  0  0  0  0  0
    0.6801   -3.5619    2.7607 B   0  0  0  0  0  0  0  0  0  0  0  0
   -2.9450   -2.6449    1.7596 N   0  0  0  0  0  0  0  0  0  0  0  0
   -1.0303    4.0870    1.8841 B   0  0  0  0  0  0  0  0  0  0  0  0
   -0.6174    0.0192   -3.8918 N   0  0  0  0  0  0  0  0  0  0  0  0
   -0.4674    1.4465   -4.0397 B   0  0  0  0  0  0  0  0  0  0  0  0
    1.2014   -3.7861   -1.6859 N   0  0  0  0  0  0  0  0  0  0  0  0
   -3.8378    2.2184   -0.4433 B   0  0  0  0  0  0  0  0  0  0  0  0
   -2.7653    2.7704   -1.1615 N   0  0  0  0  0  0  0  0  0  0  0  0
    1.4109    0.8155   -4.8367 B   0  0  0  0  0  0  0  0  0  0  0  0
   -0.2302    3.3653    2.8875 N   0  0  0  0  0  0  0  0  0  0  0  0
    0.8932   -2.8803   -2.7612 B   0  0  0  0  0  0  0  0  0  0  0  0
   -0.4822    3.7687   -0.9582 N   0  0  0  0  0  0  0  0  0  0  0  0
   -0.8026    2.1848    3.3366 B   0  0  0  0  0  0  0  0  0  0  0  0
    1.6526   -1.2767    3.5645 N   0  0  0  0  0  0  0  0  0  0  0  0
   -0.2385    3.4714   -2.3278 B   0  0  0  0  0  0  0  0  0  0  0  0
    1.3084    0.0680    3.8781 N   0  0  0  0  0  0  0  0  0  0  0  0
   -1.5972   -0.5564   -3.0347 B   0  0  0  0  0  0  0  0  0  0  0  0
   -3.8273    1.7842    0.8816 N   0  0  0  0  0  0  0  0  0  0  0  0
    0.3462    4.4960    1.2371 B   0  0  0  0  0  0  0  0  0  0  0  0
    0.0411   -0.0118    4.5157 N   0  0  0  0  0  0  0  0  0  0  0  0
   -2.7026    2.2307    1.6524 B   0  0  0  0  0  0  0  0  0  0  0  0
    3.7725   -0.1405   -0.7099 N   0  0  0  0  0  0  0  0  0  0  0  0
   -2.2622   -3.6336    1.0609 B   0  0  0  0  0  0  0  0  0  0  0  0
    1.0617    3.7316    2.2891 N   0  0  0  0  0  0  0  0  0  0  0  0
   -1.8269   -0.7731    3.2748 B   0  0  0  0  0  0  0  0  0  0  0  0
   -2.4449   -3.5958   -0.3997 N   0  0  0  0  0  0  0  0  0  0  0  0
    3.0170   -1.0804   -1.4480 B   0  0  0  0  0  0  0  0  0  0  0  0
   -3.1591   -1.2441   -0.3344 N   0  0  0  0  0  0  0  0  0  0  0  0
    2.0389    2.9184    1.6162 B   0  0  0  0  0  0  0  0  0  0  0  0
   -0.5138   -2.9003   -2.3834 N   0  0  0  0  0  0  0  0  0  0  0  0
   -1.6775   -2.1095   -2.4417 B   0  0  0  0  0  0  0  0  0  0  0  0
    0.5993    3.9651   -0.0573 N   0  0  0  0  0  0  0  0  0  0  0  0
    1.0993    2.9584   -3.1305 B   0  0  0  0  0  0  0  0  0  0  0  0
    0.0665   -4.3552    1.7758 N   0  0  0  0  0  0  0  0  0  0  0  0
   -1.7749    3.4559   -0.3567 B   0  0  0  0  0  0  0  0  0  0  0  0
   -2.0049    3.4212    1.0828 N   0  0  0  0  0  0  0  0  0  0  0  0
    1.4549   -4.2139    1.5568 B   0  0  0  0  0  0  0  0  0  0  0  0
   -0.7985    1.0682    4.2522 N   0  0  0  0  0  0  0  0  0  0  0  0
   -2.6703   -2.3958   -1.1245 B   0  0  0  0  0  0  0  0  0  0  0  0
   -1.0832   -4.4766    1.0434 N   0  0  0  0  0  0  0  0  0  0  0  0
   -2.5011    0.4976   -2.0597 B   0  0  0  0  0  0  0  0  0  0  0  0
    2.3418   -3.8901    0.5092 N   0  0  0  0  0  0  0  0  0  0  0  0
    3.9083   -0.2108    0.7822 B   0  0  0  0  0  0  0  0  0  0  0  0
    1.9342    1.9538   -2.4120 N   0  0  0  0  0  0  0  0  0  0  0  0
    1.0096    2.2526   -4.5703 B   0  0  0  0  0  0  0  0  0  0  0  0
   -4.1831    0.8389   -0.2982 N   0  0  0  0  0  0  0  0  0  0  0  0
   -1.3305    2.4572   -3.0634 B   0  0  0  0  0  0  0  0  0  0  0  0
   -2.3537    1.9388   -2.2558 N   0  0  0  0  0  0  0  0  0  0  0  0
    3.0651   -2.6511    0.6568 B   0  0  0  0  0  0  0  0  0  0  0  0
    2.3268   -3.6784   -0.9156 N   0  0  0  0  0  0  0  0  0  0  0  0
    2.2149    0.5416    2.8645 B   0  0  0  0  0  0  0  0  0  0  0  0
   -2.0267    0.6173    3.6566 N   0  0  0  0  0  0  0  0  0  0  0  0
   -1.1103   -4.1793   -0.3883 B   0  0  0  0  0  0  0  0  0  0  0  0
   -3.2168    0.0494   -0.9097 N   0  0  0  0  0  0  0  0  0  0  0  0
    3.4483    1.2506   -0.4585 B   0  0  0  0  0  0  0  0  0  0  0  0
    2.5820    1.6274    1.9917 N   0  0  0  0  0  0  0  0  0  0  0  0
    1.4707   -1.5570   -3.4623 B   0  0  0  0  0  0  0  0  0  0  0  0
   -2.0987    1.7580    2.8131 N   0  0  0  0  0  0  0  0  0  0  0  0
    2.0445    0.7081   -3.1581 B   0  0  0  0  0  0  0  0  0  0  0  0
   -2.7199   -1.3331    2.3710 N   0  0  0  0  0  0  0  0  0  0  0  0
    0.6604   -0.5396   -4.4351 B   0  0  0  0  0  0  0  0  0  0  0  0
   -0.1775   -3.7599   -1.3067 N   0  0  0  0  0  0  0  0  0  0  0  0
    0.4795   -2.1057    3.4929 B   0  0  0  0  0  0  0  0  0  0  0  0
   -0.5906   -1.2018    3.8829 N   0  0  0  0  0  0  0  0  0  0  0  0
   -3.2240   -1.4411    1.0508 B   0  0  0  0  0  0  0  0  0  0  0  0
    2.6655   -0.8603    2.6782 N   0  0  0  0  0  0  0  0  0  0  0  0
    1.8857    3.3359   -0.0522 B   0  0  0  0  0  0  0  0  0  0  0  0
    2.8730   -2.3380   -0.7394 N   0  0  0  0  0  0  0  0  0  0  0  0
  1  2  4  0  0  0  0
  2  3  2  0  0  0  0
  2  4  1  0  0  0  0
  4  5  4  0  0  0  0
  5  6  4  0  0  0  0
  6  7  4  0  0  0  0
  7  8  4  0  0  0  0
  4  9  4  0  0  0  0
  8  9  4  0  0  0  0
  8 10  1  0  0  0  0
 10 11  1  0  0  0  0
 11 12  1  0  0  0  0
 12 13  1  0  0  0  0
 13 14  1  0  0  0  0
 14 15  1  0  0  0  0
 15 16  1  0  0  0  0
 16 17  4  0  0  0  0
 17 18  2  0  0  0  0
 18 19  4  0  0  0  0
 19 20  4  0  0  0  0
 20 21  2  0  0  0  0
 21 22  4  0  0  0  0
 22 23  2  0  0  0  0
 19 24  4  0  0  0  0
 23 24  4  0  0  0  0
 16 25  2  0  0  0  0
 24 25  4  0  0  0  0
 10 26  1  0  0  0  0
 14 26  1  0  0  0  0
  1 27  1  0  0  0  0
  1 28  1  0  0  0  0
  5 29  1  0  0  0  0
  6 30  1  0  0  0  0
  7 31  1  0  0  0  0
  9 32  1  0  0  0  0
 10 33  1  0  0  0  0
 11 34  1  0  0  0  0
 11 35  1  0  0  0  0
 12 36  1  0  0  0  0
 12 37  1  0  0  0  0
 13 38  1  0  0  0  0
 13 39  1  0  0  0  0
 15 40  1  0  0  0  0
 15 41  1  0  0  0  0
 17 42  1  0  0  0  0
 18 43  1  0  0  0  0
 21 44  1  0  0  0  0
 22 45  1  0  0  0  0
 23 46  1  0  0  0  0
 25 47  1  0  0  0  0
 26 48  1  0  0  0  0
 26 49  1  0  0  0  0
 57 58  1  0  0  0  0
 60 61  1  0  0  0  0
 56 63  1  0  0  0  0
 59 64  1  0  0  0  0
 63 66  1  0  0  0  0
 65 68  1  0  0  0  0
 67 69  1  0  0  0  0
 57 70  1  0  0  0  0
 60 71  1  0  0  0  0
 56 72  1  0  0  0  0
 69 73  1  0  0  0  0
 71 74  1  0  0  0  0
 55 76  1  0  0  0  0
 63 77  1  0  0  0  0
 72 77  1  0  0  0  0
 76 79  1  0  0  0  0
 53 80  1  0  0  0  0
 75 80  1  0  0  0  0
 77 82  1  0  0  0  0
 64 83  1  0  0  0  0
 70 84  1  0  0  0  0
 83 84  1  0  0  0  0
 65 85  1  0  0  0  0
 72 85  1  0  0  0  0
 68 86  1  0  0  0  0
 54 87  1  0  0  0  0
 61 88  1  0  0  0  0
 65 88  1  0  0  0  0
 56 89  1  0  0  0  0
 74 89  1  0  0  0  0
 88 89  1  0  0  0  0
 54 90  1  0  0  0  0
 87 90  1  0  0  0  0
 66 91  1  0  0  0  0
 73 91  1  0  0  0  0
 79 92  1  0  0  0  0
 81 92  1  0  0  0  0
 84 92  1  0  0  0  0
 76 93  1  0  0  0  0
 87 93  1  0  0  0  0
 70 94  1  0  0  0  0
 90 95  1  0  0  0  0
 50 96  1  0  0  0  0
 51 96  1  0  0  0  0
 75 96  1  0  0  0  0
 52 97  1  0  0  0  0
 86 97  1  0  0  0  0
 58 98  1  0  0  0  0
 62 98  1  0  0  0  0
 86 98  1  0  0  0  0
 60 99  1  0  0  0  0
 71 99  1  0  0  0  0
 58100  1  0  0  0  0
 68100  1  0  0  0  0
 61101  1  0  0  0  0
 94101  1  0  0  0  0
100101  1  0  0  0  0
 50102  1  0  0  0  0
 95102  1  0  0  0  0
 59103  1  0  0  0  0
 95103  1  0  0  0  0
 69104  1  0  0  0  0
 78105  1  0  0  0  0
 91105  1  0  0  0  0
 79106  1  0  0  0  0
 93106  1  0  0  0  0
 81107  1  0  0  0  0
 94107  1  0  0  0  0
 99107  1  0  0  0  0
 51108  1  0  0  0  0
 52108  1  0  0  0  0
 75108  1  0  0  0  0
 51109  1  0  0  0  0
 82109  1  0  0  0  0
104109  1  0  0  0  0
 53110  1  0  0  0  0
 64110  1  0  0  0  0
 66111  1  0  0  0  0
 74111  1  0  0  0  0
105111  1  0  0  0  0
 53112  1  0  0  0  0
 62112  1  0  0  0  0
 97112  1  0  0  0  0
 55113  1  0  0  0  0
 78113  1  0  0  0  0
 57114  1  0  0  0  0
 62114  1  0  0  0  0
110114  1  0  0  0  0
 59115  1  0  0  0  0
 83115  1  0  0  0  0
106115  1  0  0  0  0
 54116  1  0  0  0  0
 67116  1  0  0  0  0
 73117  1  0  0  0  0
 78117  1  0  0  0  0
116117  1  0  0  0  0
 55118  1  0  0  0  0
 81118  1  0  0  0  0
113118  1  0  0  0  0
 50119  1  0  0  0  0
 67119  1  0  0  0  0
104119  1  0  0  0  0
 52120  1  0  0  0  0
 82120  1  0  0  0  0
 85120  1  0  0  0  0
 80121  1  0  0  0  0
102121  1  0  0  0  0
103121  1  0  0  0  0
M  END
