 xtb: 6.7.1pre (5071a88)
          08312618253D

121102  0     0  0            999 V2000
    7.5548   -1.7943   -1.0660 N   0  0  0  0  0  0  0  0  0  0  0  0
    6.4164   -1.2520   -1.5963 C   0  0  0  0  0  0  0  0  0  0  0  0
    6.1395   -1.4163   -2.7776 O   0  0  0  0  0  0  0  0  0  0  0  0
    5.5187   -0.5023   -0.6766 C   0  0  0  0  0  0  0  0  0  0  0  0
    5.9810    0.0620    0.5169 C   0  0  0  0  0  0  0  0  0  0  0  0
    5.0980    0.7543    1.3461 C   0  0  0  0  0  0  0  0  0  0  0  0
    3.7560    0.8927    0.9853 C   0  0  0  0  0  0  0  0  0  0  0  0
    3.2760    0.3513   -0.2163 C   0  0  0  0  0  0  0  0  0  0  0  0
    4.1735   -0.3470   -1.0413 C   0  0  0  0  0  0  0  0  0  0  0  0
    1.8190    0.4876   -0.6353 C   0  0  0  0  0  0  0  0  0  0  0  0
    1.3332    1.9530   -0.6732 C   0  0  0  0  0  0  0  0  0  0  0  0
    0.3413    2.2483    0.4461 C   0  0  0  0  0  0  0  0  0  0  0  0
   -0.8418    1.2699    0.4387 C   0  0  0  0  0  0  0  0  0  0  0  0
   -0.4989   -0.0925   -0.0031 N   0  0  0  0  0  0  0  0  0  0  0  0
   -1.3881   -1.1075    0.5796 C   0  0  0  0  0  0  0  0  0  0  0  0
   -2.8289   -0.9645    0.1357 C   0  0  0  0  0  0  0  0  0  0  0  0
   -3.1679   -1.0498   -1.2184 C   0  0  0  0  0  0  0  0  0  0  0  0
   -4.5003   -0.9238   -1.6254 C   0  0  0  0  0  0  0  0  0  0  0  0
   -5.5249   -0.7147   -0.7140 C   0  0  0  0  0  0  0  0  0  0  0  0
   -6.7913   -0.6003   -1.1544 N   0  0  0  0  0  0  0  0  0  0  0  0
   -7.7646   -0.3969   -0.2400 C   0  0  0  0  0  0  0  0  0  0  0  0
   -7.5377   -0.2997    1.1194 C   0  0  0  0  0  0  0  0  0  0  0  0
   -6.2292   -0.4184    1.5714 C   0  0  0  0  0  0  0  0  0  0  0  0
   -5.1909   -0.6299    0.6542 C   0  0  0  0  0  0  0  0  0  0  0  0
   -3.8518   -0.7557    1.0691 C   0  0  0  0  0  0  0  0  0  0  0  0
    0.9118   -0.4085    0.2413 C   0  0  0  0  0  0  0  0  0  0  0  0
    8.0737   -2.4070   -1.6826 H   0  0  0  0  0  0  0  0  0  0  0  0
    7.6673   -1.9356   -0.0729 H   0  0  0  0  0  0  0  0  0  0  0  0
    7.0260   -0.0037    0.8034 H   0  0  0  0  0  0  0  0  0  0  0  0
    5.4567    1.1970    2.2724 H   0  0  0  0  0  0  0  0  0  0  0  0
    3.0910    1.4383    1.6505 H   0  0  0  0  0  0  0  0  0  0  0  0
    3.8276   -0.7780   -1.9806 H   0  0  0  0  0  0  0  0  0  0  0  0
    1.7394    0.1209   -1.6695 H   0  0  0  0  0  0  0  0  0  0  0  0
    0.8236    2.1262   -1.6309 H   0  0  0  0  0  0  0  0  0  0  0  0
    2.1654    2.6658   -0.6425 H   0  0  0  0  0  0  0  0  0  0  0  0
    0.8549    2.1893    1.4131 H   0  0  0  0  0  0  0  0  0  0  0  0
   -0.0317    3.2748    0.3532 H   0  0  0  0  0  0  0  0  0  0  0  0
   -1.2689    1.2697    1.4501 H   0  0  0  0  0  0  0  0  0  0  0  0
   -1.6146    1.6620   -0.2334 H   0  0  0  0  0  0  0  0  0  0  0  0
   -1.0667   -2.1100    0.2665 H   0  0  0  0  0  0  0  0  0  0  0  0
   -1.3201   -1.0944    1.6755 H   0  0  0  0  0  0  0  0  0  0  0  0
   -2.3924   -1.2047   -1.9661 H   0  0  0  0  0  0  0  0  0  0  0  0
   -4.7438   -0.9882   -2.6830 H   0  0  0  0  0  0  0  0  0  0  0  0
   -8.7679   -0.3115   -0.6476 H   0  0  0  0  0  0  0  0  0  0  0  0
   -8.3578   -0.1358    1.8088 H   0  0  0  0  0  0  0  0  0  0  0  0
   -6.0238   -0.3458    2.6359 H   0  0  0  0  0  0  0  0  0  0  0  0
   -3.6073   -0.6873    2.1269 H   0  0  0  0  0  0  0  0  0  0  0  0
    1.1465   -0.3080    1.3096 H   0  0  0  0  0  0  0  0  0  0  0  0
    1.1203   -1.4541   -0.0228 H   0  0  0  0  0  0  0  0  0  0  0  0
    2.1012    0.0000    3.3450 B   0  0  0  0  0  0  0  0  0  0  0  0
   -2.1012    0.0000    3.3450 B   0  0  0  0  0  0  0  0  0  0  0  0
    0.0000    2.1012    3.3450 B   0  0  0  0  0  0  0  0  0  0  0  0
    0.0000   -2.1012    3.3450 B   0  0  0  0  0  0  0  0  0  0  0  0
    3.3450    2.1012    0.0000 B   0  0  0  0  0  0  0  0  0  0  0  0
    3.3450   -2.1012    0.0000 B   0  0  0  0  0  0  0  0  0  0  0  0
    3.3450    0.0000    2.1012 B   0  0  0  0  0  0  0  0  0  0  0  0
    3.3450    0.0000   -2.1012 B   0  0  0  0  0  0  0  0  0  0  0  0
   -3.3450    2.1012    0.0000 B   0  0  0  0  0  0  0  0  0  0  0  0
   -3.3450   -2.1012    0.0000 B   0  0  0  0  0  0  0  0  0  0  0  0
   -3.3450    0.0000    2.1012 B   0  0  0  0  0  0  0  0  0  0  0  0
   -3.3450    0.0000   -2.1012 B   0  0  0  0  0  0  0  0  0  0  0  0
    2.1012    0.0000   -3.3450 B   0  0  0  0  0  0  0  0  0  0  0  0
   -2.1012    0.0000   -3.3450 B   0  0  0  0  0  0  0  0  0  0  0  0
    0.0000    2.1012   -3.3450 B   0  0  0  0  0  0  0  0  0  0  0  0
    0.0000   -2.1012   -3.3450 B   0  0  0  0  0  0  0  0  0  0  0  0
    0.0000    3.3450    2.1012 B   0  0  0  0  0  0  0  0  0  0  0  0
    0.0000    3.3450   -2.1012 B   0  0  0  0  0  0  0  0  0  0  0  0
    0.0000   -3.3450    2.1012 B   0  0  0  0  0  0  0  0  0  0  0  0
    0.0000   -3.3450   -2.1012 B   0  0  0  0  0  0  0  0  0  0  0  0
    2.1012    3.3450    0.0000 B   0  0  0  0  0  0  0  0  0  0  0  0
   -2.1012    3.3450    0.0000 B   0  0  0  0  0  0  0  0  0  0  0  0
    2.1012   -3.3450    0.0000 B   0  0  0  0  0  0  0  0  0  0  0  0
   -2.1012   -3.3450    0.0000 B   0  0  0  0  0  0  0  0  0  0  0  0
    1.4800    1.4800    3.5800 B   0  0  0  0  0  0  0  0  0  0  0  0
   -1.4800    1.4800    3.5800 B   0  0  0  0  0  0  0  0  0  0  0  0
    1.4800   -1.4800    3.5800 B   0  0  0  0  0  0  0  0  0  0  0  0
   -1.4800   -1.4800    3.5800 B   0  0  0  0  0  0  0  0  0  0  0  0
    3.5800    1.4800    1.4800 B   0  0  0  0  0  0  0  0  0  0  0  0
    3.5800   -1.4800    1.4800 B   0  0  0  0  0  0  0  0  0  0  0  0
    3.5800    1.4800   -1.4800 B   0  0  0  0  0  0  0  0  0  0  0  0
    3.5800   -1.4800   -1.4800 B   0  0  0  0  0  0  0  0  0  0  0  0
   -3.5800    1.4800    1.4800 B   0  0  0  0  0  0  0  0  0  0  0  0
   -3.5800   -1.4800    1.4800 B   0  0  0  0  0  0  0  0  0  0  0  0
   -3.5800    1.4800   -1.4800 B   0  0  0  0  0  0  0  0  0  0  0  0
   -3.5800   -1.4800   -1.4800 B   0  0  0  0  0  0  0  0  0  0  0  0
    2.1012    0.0000    3.9200 N   0  0  0  0  0  0  0  0  0  0  0  0
   -2.1012    0.0000    3.9200 N   0  0  0  0  0  0  0  0  0  0  0  0
    0.0000    2.1012    3.9200 N   0  0  0  0  0  0  0  0  0  0  0  0
    0.0000   -2.1012    3.9200 N   0  0  0  0  0  0  0  0  0  0  0  0
    3.9200    2.1012    0.0000 N   0  0  0  0  0  0  0  0  0  0  0  0
    3.9200   -2.1012    0.0000 N   0  0  0  0  0  0  0  0  0  0  0  0
    3.9200    0.0000    2.1012 N   0  0  0  0  0  0  0  0  0  0  0  0
    3.9200    0.0000   -2.1012 N   0  0  0  0  0  0  0  0  0  0  0  0
   -3.9200    2.1012    0.0000 N   0  0  0  0  0  0  0  0  0  0  0  0
   -3.9200   -2.1012    0.0000 N   0  0  0  0  0  0  0  0  0  0  0  0
   -3.9200    0.0000    2.1012 N   0  0  0  0  0  0  0  0  0  0  0  0
   -3.9200    0.0000   -2.1012 N   0  0  0  0  0  0  0  0  0  0  0  0
    2.1012    0.0000   -3.9200 N   0  0  0  0  0  0  0  0  0  0  0  0
   -2.1012    0.0000   -3.9200 N   0  0  0  0  0  0  0  0  0  0  0  0
    0.0000    2.1012   -3.9200 N   0  0  0  0  0  0  0  0  0  0  0  0
    0.0000   -2.1012   -3.9200 N   0  0  0  0  0  0  0  0  0  0  0  0
    0.0000    3.9200    2.1012 N   0  0  0  0  0  0  0  0  0  0  0  0
    0.0000    3.9200   -2.1012 N   0  0  0  0  0  0  0  0  0  0  0  0
    0.0000   -3.9200    2.1012 N   0  0  0  0  0  0  0  0  0  0  0  0
    0.0000   -3.9200   -2.1012 N   0  0  0  0  0  0  0  0  0  0  0  0
    2.1012    3.9200    0.0000 N   0  0  0  0  0  0  0  0  0  0  0  0
   -2.1012    3.9200    0.0000 N   0  0  0  0  0  0  0  0  0  0  0  0
    2.1012   -3.9200    0.0000 N   0  0  0  0  0  0  0  0  0  0  0  0
   -2.1012   -3.9200    0.0000 N   0  0  0  0  0  0  0  0  0  0  0  0
    1.4800    1.4800    4.2200 N   0  0  0  0  0  0  0  0  0  0  0  0
   -1.4800    1.4800    4.2200 N   0  0  0  0  0  0  0  0  0  0  0  0
    1.4800   -1.4800    4.2200 N   0  0  0  0  0  0  0  0  0  0  0  0
   -1.4800   -1.4800    4.2200 N   0  0  0  0  0  0  0  0  0  0  0  0
    4.2200    1.4800    1.4800 N   0  0  0  0  0  0  0  0  0  0  0  0
    4.2200   -1.4800    1.4800 N   0  0  0  0  0  0  0  0  0  0  0  0
    4.2200    1.4800   -1.4800 N   0  0  0  0  0  0  0  0  0  0  0  0
    4.2200   -1.4800   -1.4800 N   0  0  0  0  0  0  0  0  0  0  0  0
   -4.2200    1.4800    1.4800 N   0  0  0  0  0  0  0  0  0  0  0  0
   -4.2200   -1.4800    1.4800 N   0  0  0  0  0  0  0  0  0  0  0  0
   -4.2200    1.4800   -1.4800 N   0  0  0  0  0  0  0  0  0  0  0  0
   -4.2200   -1.4800   -1.4800 N   0  0  0  0  0  0  0  0  0  0  0  0
  1  2  1  0  0  0  0
  2  3  4  0  0  0  0
  2  4  1  0  0  0  0
  4  5  1  0  0  0  0
  5  6  1  0  0  0  0
  6  7  1  0  0  0  0
  7  8  1  0  0  0  0
  4  9  1  0  0  0  0
  8  9  1  0  0  0  0
  8 10  1  0  0  0  0
 10 11  1  0  0  0  0
 11 12  1  0  0  0  0
 12 13  1  0  0  0  0
 13 14  1  0  0  0  0
 14 15  1  0  0  0  0
 15 16  1  0  0  0  0
 16 17  1  0  0  0  0
 18 19  1  0  0  0  0
 19 20  4  0  0  0  0
 20 21  4  0  0  0  0
 21 22  4  0  0  0  0
 22 23  4  0  0  0  0
 19 24  1  0  0  0  0
 23 24  1  0  0  0  0
 16 25  1  0  0  0  0
 24 25  1  0  0  0  0
 10 26  1  0  0  0  0
 14 26  1  0  0  0  0
  1 27  1  0  0  0  0
  1 28  1  0  0  0  0
  5 29  1  0  0  0  0
  6 30  1  0  0  0  0
 10 33  1  0  0  0  0
 11 34  1  0  0  0  0
 11 35  1  0  0  0  0
 12 36  1  0  0  0  0
 12 37  1  0  0  0  0
 13 38  1  0  0  0  0
 13 39  1  0  0  0  0
 15 40  1  0  0  0  0
 15 41  1  0  0  0  0
 17 42  1  0  0  0  0
 18 43  1  0  0  0  0
 21 44  1  0  0  0  0
 22 45  1  0  0  0  0
 23 46  1  0  0  0  0
 26 48  1  0  0  0  0
 26 49  1  0  0  0  0
 16 59  1  0  0  0  0
 51 60  1  0  0  0  0
  7 78  1  0  0  0  0
 31 78  1  0  0  0  0
 25 83  1  0  0  0  0
 17 85  2  0  0  0  0
 50 86  3  0  0  0  0
 51 87  3  0  0  0  0
 52 88  3  0  0  0  0
 53 89  3  0  0  0  0
 54 90  3  0  0  0  0
 55 91  3  0  0  0  0
  7 92  1  0  0  0  0
 56 92  3  0  0  0  0
  9 93  1  0  0  0  0
 57 93  3  0  0  0  0
 58 94  3  0  0  0  0
 59 95  3  0  0  0  0
 25 96  1  0  0  0  0
 47 96  1  0  0  0  0
 60 96  2  0  0  0  0
 18 97  1  0  0  0  0
 61 97  3  0  0  0  0
 62 98  3  0  0  0  0
 63 99  3  0  0  0  0
 64100  3  0  0  0  0
 65101  3  0  0  0  0
 66102  3  0  0  0  0
 67103  3  0  0  0  0
 68104  3  0  0  0  0
 69105  3  0  0  0  0
 70106  3  0  0  0  0
 71107  3  0  0  0  0
 72108  3  0  0  0  0
 73109  3  0  0  0  0
 74110  3  0  0  0  0
 75111  3  0  0  0  0
 76112  3  0  0  0  0
 77113  3  0  0  0  0
  6114  1  0  0  0  0
  7114  1  0  0  0  0
 78114  2  0  0  0  0
 79115  3  0  0  0  0
 80116  3  0  0  0  0
  9117  1  0  0  0  0
 81117  2  0  0  0  0
 82118  3  0  0  0  0
 24119  1  0  0  0  0
 25119  1  0  0  0  0
 83119  2  0  0  0  0
 84120  3  0  0  0  0
 17121  1  0  0  0  0
 18121  2  0  0  0  0
 85121  2  0  0  0  0
M  END
