 xtb: 6.7.1pre (5071a88)
          08312618363D

112 87  0     0  0            999 V2000
   -2.0245    1.0011   -2.8115 N   0  0  0  0  0  0  0  0  0  0  0  0
   -0.8823    1.1489   -2.0747 C   0  0  0  0  0  0  0  0  0  0  0  0
   -0.3380    2.2381   -1.9527 O   0  0  0  0  0  0  0  0  0  0  0  0
   -0.3760   -0.0507   -1.3653 C   0  0  0  0  0  0  0  0  0  0  0  0
    0.9935   -0.3829   -1.4111 C   0  0  0  0  0  0  0  0  0  0  0  0
    2.0837    0.4705   -2.4679 Cl  0  0  0  0  0  0  0  0  0  0  0  0
    1.4796   -1.4951   -0.6869 C   0  0  0  0  0  0  0  0  0  0  0  0
    2.8530   -1.8466   -0.6153 N   0  0  0  0  0  0  0  0  0  0  0  0
    3.8871   -1.1557    0.0708 C   0  0  0  0  0  0  0  0  0  0  0  0
    3.7558    0.1460    0.5660 C   0  0  0  0  0  0  0  0  0  0  0  0
    4.8387    0.7932    1.1760 C   0  0  0  0  0  0  0  0  0  0  0  0
    6.0700    0.1466    1.2850 C   0  0  0  0  0  0  0  0  0  0  0  0
    7.6697    1.1135    2.1905 I   0  0  0  0  0  0  0  0  0  0  0  0
    6.2313   -1.1412    0.7869 C   0  0  0  0  0  0  0  0  0  0  0  0
    5.1469   -1.7709    0.1822 C   0  0  0  0  0  0  0  0  0  0  0  0
    5.3107   -3.0173   -0.2910 F   0  0  0  0  0  0  0  0  0  0  0  0
    0.5610   -2.2648    0.0457 C   0  0  0  0  0  0  0  0  0  0  0  0
    0.9973   -3.3342    0.7298 F   0  0  0  0  0  0  0  0  0  0  0  0
   -0.7922   -1.9621    0.0811 C   0  0  0  0  0  0  0  0  0  0  0  0
   -1.2545   -0.8420   -0.6027 C   0  0  0  0  0  0  0  0  0  0  0  0
   -2.6062   -0.6169   -0.5640 O   0  0  0  0  0  0  0  0  0  0  0  0
   -2.9469    0.3827    0.4159 C   0  0  0  0  0  0  0  0  0  0  0  0
   -4.4306    0.7214    0.2545 C   0  0  0  0  0  0  0  0  0  0  0  0
   -4.6512    1.3426   -1.0239 O   0  0  0  0  0  0  0  0  0  0  0  0
   -4.9087    1.6820    1.3440 C   0  0  0  0  0  0  0  0  0  0  0  0
   -6.2898    1.9687    1.1132 O   0  0  0  0  0  0  0  0  0  0  0  0
   -2.6732    0.2556   -2.5780 H   0  0  0  0  0  0  0  0  0  0  0  0
   -2.4674    1.8673   -3.0932 H   0  0  0  0  0  0  0  0  0  0  0  0
    2.9735   -2.8514   -0.4643 H   0  0  0  0  0  0  0  0  0  0  0  0
    2.8163    0.6850    0.4908 H   0  0  0  0  0  0  0  0  0  0  0  0
    4.7034    1.8051    1.5515 H   0  0  0  0  0  0  0  0  0  0  0  0
    7.1777   -1.6676    0.8516 H   0  0  0  0  0  0  0  0  0  0  0  0
   -1.4713   -2.5958    0.6425 H   0  0  0  0  0  0  0  0  0  0  0  0
   -2.7591   -0.0221    1.4177 H   0  0  0  0  0  0  0  0  0  0  0  0
   -2.3433    1.2863    0.2696 H   0  0  0  0  0  0  0  0  0  0  0  0
   -5.0351   -0.1929    0.2551 H   0  0  0  0  0  0  0  0  0  0  0  0
   -5.5684    1.6826   -0.9765 H   0  0  0  0  0  0  0  0  0  0  0  0
   -4.3625    2.6298    1.2978 H   0  0  0  0  0  0  0  0  0  0  0  0
   -4.8007    1.2414    2.3395 H   0  0  0  0  0  0  0  0  0  0  0  0
   -6.5672    2.6019    1.7996 H   0  0  0  0  0  0  0  0  0  0  0  0
    2.1012    0.0000    3.3450 B   0  0  0  0  0  0  0  0  0  0  0  0
   -2.1012    0.0000    3.3450 B   0  0  0  0  0  0  0  0  0  0  0  0
    0.0000    2.1012    3.3450 B   0  0  0  0  0  0  0  0  0  0  0  0
    0.0000   -2.1012    3.3450 B   0  0  0  0  0  0  0  0  0  0  0  0
    3.3450    2.1012    0.0000 B   0  0  0  0  0  0  0  0  0  0  0  0
    3.3450   -2.1012    0.0000 B   0  0  0  0  0  0  0  0  0  0  0  0
    3.3450    0.0000    2.1012 B   0  0  0  0  0  0  0  0  0  0  0  0
    3.3450    0.0000   -2.1012 B   0  0  0  0  0  0  0  0  0  0  0  0
   -3.3450    2.1012    0.0000 B   0  0  0  0  0  0  0  0  0  0  0  0
   -3.3450   -2.1012    0.0000 B   0  0  0  0  0  0  0  0  0  0  0  0
   -3.3450    0.0000    2.1012 B   0  0  0  0  0  0  0  0  0  0  0  0
   -3.3450    0.0000   -2.1012 B   0  0  0  0  0  0  0  0  0  0  0  0
    2.1012    0.0000   -3.3450 B   0  0  0  0  0  0  0  0  0  0  0  0
   -2.1012    0.0000   -3.3450 B   0  0  0  0  0  0  0  0  0  0  0  0
    0.0000    2.1012   -3.3450 B   0  0  0  0  0  0  0  0  0  0  0  0
    0.0000   -2.1012   -3.3450 B   0  0  0  0  0  0  0  0  0  0  0  0
    0.0000    3.3450    2.1012 B   0  0  0  0  0  0  0  0  0  0  0  0
    0.0000    3.3450   -2.1012 B   0  0  0  0  0  0  0  0  0  0  0  0
    0.0000   -3.3450    2.1012 B   0  0  0  0  0  0  0  0  0  0  0  0
    0.0000   -3.3450   -2.1012 B   0  0  0  0  0  0  0  0  0  0  0  0
    2.1012    3.3450    0.0000 B   0  0  0  0  0  0  0  0  0  0  0  0
   -2.1012    3.3450    0.0000 B   0  0  0  0  0  0  0  0  0  0  0  0
    2.1012   -3.3450    0.0000 B   0  0  0  0  0  0  0  0  0  0  0  0
   -2.1012   -3.3450    0.0000 B   0  0  0  0  0  0  0  0  0  0  0  0
    1.4800    1.4800    3.5800 B   0  0  0  0  0  0  0  0  0  0  0  0
   -1.4800    1.4800    3.5800 B   0  0  0  0  0  0  0  0  0  0  0  0
    1.4800   -1.4800    3.5800 B   0  0  0  0  0  0  0  0  0  0  0  0
   -1.4800   -1.4800    3.5800 B   0  0  0  0  0  0  0  0  0  0  0  0
    3.5800    1.4800    1.4800 B   0  0  0  0  0  0  0  0  0  0  0  0
    3.5800   -1.4800    1.4800 B   0  0  0  0  0  0  0  0  0  0  0  0
    3.5800    1.4800   -1.4800 B   0  0  0  0  0  0  0  0  0  0  0  0
    3.5800   -1.4800   -1.4800 B   0  0  0  0  0  0  0  0  0  0  0  0
   -3.5800    1.4800    1.4800 B   0  0  0  0  0  0  0  0  0  0  0  0
   -3.5800   -1.4800    1.4800 B   0  0  0  0  0  0  0  0  0  0  0  0
   -3.5800    1.4800   -1.4800 B   0  0  0  0  0  0  0  0  0  0  0  0
   -3.5800   -1.4800   -1.4800 B   0  0  0  0  0  0  0  0  0  0  0  0
    2.1012    0.0000    3.9200 N   0  0  0  0  0  0  0  0  0  0  0  0
   -2.1012    0.0000    3.9200 N   0  0  0  0  0  0  0  0  0  0  0  0
    0.0000    2.1012    3.9200 N   0  0  0  0  0  0  0  0  0  0  0  0
    0.0000   -2.1012    3.9200 N   0  0  0  0  0  0  0  0  0  0  0  0
    3.9200    2.1012    0.0000 N   0  0  0  0  0  0  0  0  0  0  0  0
    3.9200   -2.1012    0.0000 N   0  0  0  0  0  0  0  0  0  0  0  0
    3.9200    0.0000    2.1012 N   0  0  0  0  0  0  0  0  0  0  0  0
    3.9200    0.0000   -2.1012 N   0  0  0  0  0  0  0  0  0  0  0  0
   -3.9200    2.1012    0.0000 N   0  0  0  0  0  0  0  0  0  0  0  0
   -3.9200   -2.1012    0.0000 N   0  0  0  0  0  0  0  0  0  0  0  0
   -3.9200    0.0000    2.1012 N   0  0  0  0  0  0  0  0  0  0  0  0
   -3.9200    0.0000   -2.1012 N   0  0  0  0  0  0  0  0  0  0  0  0
    2.1012    0.0000   -3.9200 N   0  0  0  0  0  0  0  0  0  0  0  0
   -2.1012    0.0000   -3.9200 N   0  0  0  0  0  0  0  0  0  0  0  0
    0.0000    2.1012   -3.9200 N   0  0  0  0  0  0  0  0  0  0  0  0
    0.0000   -2.1012   -3.9200 N   0  0  0  0  0  0  0  0  0  0  0  0
    0.0000    3.9200    2.1012 N   0  0  0  0  0  0  0  0  0  0  0  0
    0.0000    3.9200   -2.1012 N   0  0  0  0  0  0  0  0  0  0  0  0
    0.0000   -3.9200    2.1012 N   0  0  0  0  0  0  0  0  0  0  0  0
    0.0000   -3.9200   -2.1012 N   0  0  0  0  0  0  0  0  0  0  0  0
    2.1012    3.9200    0.0000 N   0  0  0  0  0  0  0  0  0  0  0  0
   -2.1012    3.9200    0.0000 N   0  0  0  0  0  0  0  0  0  0  0  0
    2.1012   -3.9200    0.0000 N   0  0  0  0  0  0  0  0  0  0  0  0
   -2.1012   -3.9200    0.0000 N   0  0  0  0  0  0  0  0  0  0  0  0
    1.4800    1.4800    4.2200 N   0  0  0  0  0  0  0  0  0  0  0  0
   -1.4800    1.4800    4.2200 N   0  0  0  0  0  0  0  0  0  0  0  0
    1.4800   -1.4800    4.2200 N   0  0  0  0  0  0  0  0  0  0  0  0
   -1.4800   -1.4800    4.2200 N   0  0  0  0  0  0  0  0  0  0  0  0
    4.2200    1.4800    1.4800 N   0  0  0  0  0  0  0  0  0  0  0  0
    4.2200   -1.4800    1.4800 N   0  0  0  0  0  0  0  0  0  0  0  0
    4.2200    1.4800   -1.4800 N   0  0  0  0  0  0  0  0  0  0  0  0
    4.2200   -1.4800   -1.4800 N   0  0  0  0  0  0  0  0  0  0  0  0
   -4.2200    1.4800    1.4800 N   0  0  0  0  0  0  0  0  0  0  0  0
   -4.2200   -1.4800    1.4800 N   0  0  0  0  0  0  0  0  0  0  0  0
   -4.2200    1.4800   -1.4800 N   0  0  0  0  0  0  0  0  0  0  0  0
   -4.2200   -1.4800   -1.4800 N   0  0  0  0  0  0  0  0  0  0  0  0
  1  2  1  0  0  0  0
  2  3  1  0  0  0  0
  2  4  1  0  0  0  0
  4  5  1  0  0  0  0
  5  6  1  0  0  0  0
  5  7  4  0  0  0  0
  7  8  1  0  0  0  0
  9 10  1  0  0  0  0
 10 11  1  0  0  0  0
 11 12  4  0  0  0  0
 12 13  1  0  0  0  0
 12 14  4  0  0  0  0
  9 15  1  0  0  0  0
 14 15  1  0  0  0  0
 15 16  1  0  0  0  0
  7 17  1  0  0  0  0
 17 18  1  0  0  0  0
 17 19  4  0  0  0  0
  4 20  1  0  0  0  0
 19 20  4  0  0  0  0
 20 21  1  0  0  0  0
 21 22  1  0  0  0  0
 22 23  1  0  0  0  0
 23 24  1  0  0  0  0
 25 26  1  0  0  0  0
  1 27  1  0  0  0  0
  1 28  1  0  0  0  0
 10 30  1  0  0  0  0
 14 32  1  0  0  0  0
 19 33  1  0  0  0  0
 22 34  1  0  0  0  0
 22 35  1  0  0  0  0
 23 36  1  0  0  0  0
 24 37  1  0  0  0  0
 25 38  1  0  0  0  0
 25 39  1  0  0  0  0
 26 40  1  0  0  0  0
  8 46  1  0  0  0  0
  6 48  1  0  0  0  0
  6 53  1  0  0  0  0
  1 54  1  0  0  0  0
  3 58  1  0  0  0  0
  8 72  1  0  0  0  0
 22 73  1  0  0  0  0
 41 77  3  0  0  0  0
 42 78  3  0  0  0  0
 43 79  3  0  0  0  0
 44 80  3  0  0  0  0
 45 81  3  0  0  0  0
  9 82  1  0  0  0  0
 15 82  1  0  0  0  0
 46 82  2  0  0  0  0
 47 83  3  0  0  0  0
 48 84  3  0  0  0  0
 49 85  3  0  0  0  0
 50 86  3  0  0  0  0
 51 87  3  0  0  0  0
 52 88  3  0  0  0  0
  6 89  1  0  0  0  0
 53 89  3  0  0  0  0
 54 90  3  0  0  0  0
 55 91  3  0  0  0  0
 56 92  3  0  0  0  0
 57 93  3  0  0  0  0
 58 94  3  0  0  0  0
 59 95  3  0  0  0  0
 60 96  3  0  0  0  0
 61 97  3  0  0  0  0
 62 98  3  0  0  0  0
 63 99  3  0  0  0  0
 64100  3  0  0  0  0
 65101  3  0  0  0  0
 66102  3  0  0  0  0
 67103  3  0  0  0  0
 68104  3  0  0  0  0
 11105  1  0  0  0  0
 31105  1  0  0  0  0
 69105  2  0  0  0  0
 70106  3  0  0  0  0
 71107  3  0  0  0  0
 72108  3  0  0  0  0
 25109  2  0  0  0  0
 73109  2  0  0  0  0
 74110  3  0  0  0  0
 24111  2  0  0  0  0
 75111  2  0  0  0  0
 76112  3  0  0  0  0
M  END
