 xtb: 6.7.1pre (5071a88)
          08312621133D

112149  0     0  0            999 V2000
   -2.0245    1.0011    8.7211 N   0  0  0  0  0  0  0  0  0  0  0  0
   -0.8823    1.1489    9.4579 C   0  0  0  0  0  0  0  0  0  0  0  0
   -0.3380    2.2381    9.5800 O   0  0  0  0  0  0  0  0  0  0  0  0
   -0.3760   -0.0507   10.1674 C   0  0  0  0  0  0  0  0  0  0  0  0
    0.9935   -0.3829   10.1216 C   0  0  0  0  0  0  0  0  0  0  0  0
    2.0837    0.4705    9.0647 Cl  0  0  0  0  0  0  0  0  0  0  0  0
    1.4796   -1.4951   10.8457 C   0  0  0  0  0  0  0  0  0  0  0  0
    2.8530   -1.8466   10.9173 N   0  0  0  0  0  0  0  0  0  0  0  0
    3.8871   -1.1557   11.6034 C   0  0  0  0  0  0  0  0  0  0  0  0
    3.7558    0.1460   12.0987 C   0  0  0  0  0  0  0  0  0  0  0  0
    4.8387    0.7932   12.7087 C   0  0  0  0  0  0  0  0  0  0  0  0
    6.0700    0.1466   12.8176 C   0  0  0  0  0  0  0  0  0  0  0  0
    7.6697    1.1135   13.7231 I   0  0  0  0  0  0  0  0  0  0  0  0
    6.2313   -1.1412   12.3195 C   0  0  0  0  0  0  0  0  0  0  0  0
    5.1469   -1.7709   11.7149 C   0  0  0  0  0  0  0  0  0  0  0  0
    5.3107   -3.0173   11.2417 F   0  0  0  0  0  0  0  0  0  0  0  0
    0.5610   -2.2648   11.5783 C   0  0  0  0  0  0  0  0  0  0  0  0
    0.9973   -3.3342   12.2625 F   0  0  0  0  0  0  0  0  0  0  0  0
   -0.7922   -1.9621   11.6137 C   0  0  0  0  0  0  0  0  0  0  0  0
   -1.2545   -0.8420   10.9299 C   0  0  0  0  0  0  0  0  0  0  0  0
   -2.6062   -0.6169   10.9686 O   0  0  0  0  0  0  0  0  0  0  0  0
   -2.9469    0.3827   11.9485 C   0  0  0  0  0  0  0  0  0  0  0  0
   -4.4306    0.7214   11.7871 C   0  0  0  0  0  0  0  0  0  0  0  0
   -4.6512    1.3426   10.5088 O   0  0  0  0  0  0  0  0  0  0  0  0
   -4.9087    1.6820   12.8766 C   0  0  0  0  0  0  0  0  0  0  0  0
   -6.2898    1.9687   12.6459 O   0  0  0  0  0  0  0  0  0  0  0  0
   -2.6732    0.2556    8.9546 H   0  0  0  0  0  0  0  0  0  0  0  0
   -2.4674    1.8673    8.4395 H   0  0  0  0  0  0  0  0  0  0  0  0
    2.9735   -2.8514   11.0683 H   0  0  0  0  0  0  0  0  0  0  0  0
    2.8163    0.6850   12.0234 H   0  0  0  0  0  0  0  0  0  0  0  0
    4.7034    1.8051   13.0842 H   0  0  0  0  0  0  0  0  0  0  0  0
    7.1777   -1.6676   12.3842 H   0  0  0  0  0  0  0  0  0  0  0  0
   -1.4713   -2.5958   12.1751 H   0  0  0  0  0  0  0  0  0  0  0  0
   -2.7591   -0.0221   12.9503 H   0  0  0  0  0  0  0  0  0  0  0  0
   -2.3433    1.2863   11.8022 H   0  0  0  0  0  0  0  0  0  0  0  0
   -5.0351   -0.1929   11.7877 H   0  0  0  0  0  0  0  0  0  0  0  0
   -5.5684    1.6826   10.5561 H   0  0  0  0  0  0  0  0  0  0  0  0
   -4.3625    2.6298   12.8305 H   0  0  0  0  0  0  0  0  0  0  0  0
   -4.8007    1.2414   13.8721 H   0  0  0  0  0  0  0  0  0  0  0  0
   -6.5672    2.6019   13.3322 H   0  0  0  0  0  0  0  0  0  0  0  0
    3.4592   -1.4546    1.6280 B   0  0  0  0  0  0  0  0  0  0  0  0
    3.4564    1.1299    0.9400 N   0  0  0  0  0  0  0  0  0  0  0  0
    2.5399    2.3625   -1.2610 B   0  0  0  0  0  0  0  0  0  0  0  0
    2.2931   -0.6416   -2.7306 N   0  0  0  0  0  0  0  0  0  0  0  0
    0.6905   -3.5611    2.7027 B   0  0  0  0  0  0  0  0  0  0  0  0
   -2.9397   -2.6548    1.7095 N   0  0  0  0  0  0  0  0  0  0  0  0
   -1.0382    4.0851    1.8312 B   0  0  0  0  0  0  0  0  0  0  0  0
   -0.6193    0.0177   -3.9419 N   0  0  0  0  0  0  0  0  0  0  0  0
   -0.4737    1.4453   -4.0917 B   0  0  0  0  0  0  0  0  0  0  0  0
    1.2096   -3.7868   -1.7394 N   0  0  0  0  0  0  0  0  0  0  0  0
   -3.8445    2.2094   -0.4937 B   0  0  0  0  0  0  0  0  0  0  0  0
   -2.7729    2.7636   -1.2118 N   0  0  0  0  0  0  0  0  0  0  0  0
    1.4057    0.8181   -4.8893 B   0  0  0  0  0  0  0  0  0  0  0  0
   -0.2358    3.3642    2.8335 N   0  0  0  0  0  0  0  0  0  0  0  0
    0.8983   -2.8798   -2.8138 B   0  0  0  0  0  0  0  0  0  0  0  0
   -0.4918    3.7666   -1.0101 N   0  0  0  0  0  0  0  0  0  0  0  0
   -0.8060    2.1823    3.2819 B   0  0  0  0  0  0  0  0  0  0  0  0
    1.6561   -1.2744    3.5036 N   0  0  0  0  0  0  0  0  0  0  0  0
   -0.2485    3.4699   -2.3799 B   0  0  0  0  0  0  0  0  0  0  0  0
    1.3087    0.0689    3.8170 N   0  0  0  0  0  0  0  0  0  0  0  0
   -1.5974   -0.5599   -3.0847 B   0  0  0  0  0  0  0  0  0  0  0  0
   -3.8325    1.7768    0.8316 N   0  0  0  0  0  0  0  0  0  0  0  0
    0.3376    4.4960    1.1839 B   0  0  0  0  0  0  0  0  0  0  0  0
    0.0433   -0.0140    4.4567 N   0  0  0  0  0  0  0  0  0  0  0  0
   -2.7088    2.2268    1.6012 B   0  0  0  0  0  0  0  0  0  0  0  0
    3.7727   -0.1326   -0.7655 N   0  0  0  0  0  0  0  0  0  0  0  0
   -2.2534   -3.6394    1.0085 B   0  0  0  0  0  0  0  0  0  0  0  0
    1.0558    3.7334    2.2357 N   0  0  0  0  0  0  0  0  0  0  0  0
   -1.8256   -0.7775    3.2198 B   0  0  0  0  0  0  0  0  0  0  0  0
   -2.4368   -3.6019   -0.4508 N   0  0  0  0  0  0  0  0  0  0  0  0
    3.0187   -1.0737   -1.5028 B   0  0  0  0  0  0  0  0  0  0  0  0
   -3.1580   -1.2526   -0.3843 N   0  0  0  0  0  0  0  0  0  0  0  0
    2.0347    2.9223    1.5617 B   0  0  0  0  0  0  0  0  0  0  0  0
   -0.5074   -2.9001   -2.4328 N   0  0  0  0  0  0  0  0  0  0  0  0
   -1.6735   -2.1129   -2.4916 B   0  0  0  0  0  0  0  0  0  0  0  0
    0.5901    3.9646   -0.1102 N   0  0  0  0  0  0  0  0  0  0  0  0
    1.0903    2.9596   -3.1825 B   0  0  0  0  0  0  0  0  0  0  0  0
    0.0774   -4.3592    1.7213 N   0  0  0  0  0  0  0  0  0  0  0  0
   -1.7840    3.4524   -0.4082 B   0  0  0  0  0  0  0  0  0  0  0  0
   -2.0135    3.4185    1.0316 N   0  0  0  0  0  0  0  0  0  0  0  0
    1.4659   -4.2121    1.4991 B   0  0  0  0  0  0  0  0  0  0  0  0
   -0.7980    1.0642    4.1946 N   0  0  0  0  0  0  0  0  0  0  0  0
   -2.6662   -2.4021   -1.1753 B   0  0  0  0  0  0  0  0  0  0  0  0
   -1.0744   -4.4843    0.9912 N   0  0  0  0  0  0  0  0  0  0  0  0
   -2.5037    0.4914   -2.1091 B   0  0  0  0  0  0  0  0  0  0  0  0
    2.3527   -3.8873    0.4531 N   0  0  0  0  0  0  0  0  0  0  0  0
    3.9123   -0.2024    0.7259 B   0  0  0  0  0  0  0  0  0  0  0  0
    1.9285    1.9570   -2.4651 N   0  0  0  0  0  0  0  0  0  0  0  0
    1.0012    2.2544   -4.6225 B   0  0  0  0  0  0  0  0  0  0  0  0
   -4.1860    0.8290   -0.3475 N   0  0  0  0  0  0  0  0  0  0  0  0
   -1.3389    2.4537   -3.1149 B   0  0  0  0  0  0  0  0  0  0  0  0
   -2.3596    1.9326   -2.3058 N   0  0  0  0  0  0  0  0  0  0  0  0
    3.0731   -2.6455    0.6011 B   0  0  0  0  0  0  0  0  0  0  0  0
    2.3352   -3.6737   -0.9709 N   0  0  0  0  0  0  0  0  0  0  0  0
    2.2179    0.5458    2.8084 B   0  0  0  0  0  0  0  0  0  0  0  0
   -2.0264    0.6119    3.6015 N   0  0  0  0  0  0  0  0  0  0  0  0
   -1.1017   -4.1838   -0.4410 B   0  0  0  0  0  0  0  0  0  0  0  0
   -3.2181    0.0417   -0.9586 N   0  0  0  0  0  0  0  0  0  0  0  0
    3.4478    1.2586   -0.5141 B   0  0  0  0  0  0  0  0  0  0  0  0
    2.5821    1.6330    1.9365 N   0  0  0  0  0  0  0  0  0  0  0  0
    1.4721   -1.5550   -3.5156 B   0  0  0  0  0  0  0  0  0  0  0  0
   -2.1026    1.7542    2.7608 N   0  0  0  0  0  0  0  0  0  0  0  0
    2.0408    0.7119   -3.2115 B   0  0  0  0  0  0  0  0  0  0  0  0
   -2.7209   -1.3417    2.3206 N   0  0  0  0  0  0  0  0  0  0  0  0
    0.6586   -0.5389   -4.4869 B   0  0  0  0  0  0  0  0  0  0  0  0
   -0.1687   -3.7594   -1.3565 N   0  0  0  0  0  0  0  0  0  0  0  0
    0.4856   -2.1056    3.4338 B   0  0  0  0  0  0  0  0  0  0  0  0
   -0.5873   -1.2050    3.8245 N   0  0  0  0  0  0  0  0  0  0  0  0
   -3.2244   -1.4514    1.0003 B   0  0  0  0  0  0  0  0  0  0  0  0
    2.6713   -0.8555    2.6211 N   0  0  0  0  0  0  0  0  0  0  0  0
    1.8786    3.3393   -0.1064 B   0  0  0  0  0  0  0  0  0  0  0  0
    2.8769   -2.3318   -0.7936 N   0  0  0  0  0  0  0  0  0  0  0  0
  1  2  4  0  0  0  0
  2  3  2  0  0  0  0
  2  4  1  0  0  0  0
  4  5  4  0  0  0  0
  5  6  1  0  0  0  0
  5  7  4  0  0  0  0
  7  8  1  0  0  0  0
  8  9  1  0  0  0  0
  9 10  4  0  0  0  0
 10 11  4  0  0  0  0
 11 12  4  0  0  0  0
 12 13  1  0  0  0  0
 12 14  4  0  0  0  0
  9 15  4  0  0  0  0
 14 15  4  0  0  0  0
 15 16  1  0  0  0  0
  7 17  4  0  0  0  0
 17 18  1  0  0  0  0
 17 19  4  0  0  0  0
  4 20  4  0  0  0  0
 19 20  4  0  0  0  0
 20 21  1  0  0  0  0
 21 22  1  0  0  0  0
 22 23  1  0  0  0  0
 23 24  1  0  0  0  0
 23 25  1  0  0  0  0
 25 26  1  0  0  0  0
  1 27  1  0  0  0  0
  1 28  1  0  0  0  0
  8 29  1  0  0  0  0
 10 30  1  0  0  0  0
 11 31  1  0  0  0  0
 14 32  1  0  0  0  0
 19 33  1  0  0  0  0
 22 34  1  0  0  0  0
 22 35  1  0  0  0  0
 23 36  1  0  0  0  0
 24 37  1  0  0  0  0
 25 38  1  0  0  0  0
 25 39  1  0  0  0  0
 26 40  1  0  0  0  0
 48 49  1  0  0  0  0
 51 52  1  0  0  0  0
 47 54  1  0  0  0  0
 50 55  1  0  0  0  0
 54 57  1  0  0  0  0
 56 59  1  0  0  0  0
 58 60  1  0  0  0  0
 48 61  1  0  0  0  0
 51 62  1  0  0  0  0
 47 63  1  0  0  0  0
 60 64  1  0  0  0  0
 62 65  1  0  0  0  0
 46 67  1  0  0  0  0
 54 68  1  0  0  0  0
 63 68  1  0  0  0  0
 67 70  1  0  0  0  0
 44 71  1  0  0  0  0
 66 71  1  0  0  0  0
 68 73  1  0  0  0  0
 55 74  1  0  0  0  0
 61 75  1  0  0  0  0
 74 75  1  0  0  0  0
 56 76  1  0  0  0  0
 63 76  1  0  0  0  0
 59 77  1  0  0  0  0
 45 78  1  0  0  0  0
 52 79  1  0  0  0  0
 56 79  1  0  0  0  0
 47 80  1  0  0  0  0
 65 80  1  0  0  0  0
 79 80  1  0  0  0  0
 45 81  1  0  0  0  0
 78 81  1  0  0  0  0
 57 82  1  0  0  0  0
 64 82  1  0  0  0  0
 70 83  1  0  0  0  0
 72 83  1  0  0  0  0
 75 83  1  0  0  0  0
 67 84  1  0  0  0  0
 78 84  1  0  0  0  0
 61 85  1  0  0  0  0
 81 86  1  0  0  0  0
 41 87  1  0  0  0  0
 42 87  1  0  0  0  0
 66 87  1  0  0  0  0
 43 88  1  0  0  0  0
 77 88  1  0  0  0  0
 49 89  1  0  0  0  0
 53 89  1  0  0  0  0
 77 89  1  0  0  0  0
 51 90  1  0  0  0  0
 62 90  1  0  0  0  0
 49 91  1  0  0  0  0
 59 91  1  0  0  0  0
 52 92  1  0  0  0  0
 85 92  1  0  0  0  0
 91 92  1  0  0  0  0
 41 93  1  0  0  0  0
 86 93  1  0  0  0  0
 50 94  1  0  0  0  0
 86 94  1  0  0  0  0
 60 95  1  0  0  0  0
 69 96  1  0  0  0  0
 82 96  1  0  0  0  0
 70 97  1  0  0  0  0
 84 97  1  0  0  0  0
 72 98  1  0  0  0  0
 85 98  1  0  0  0  0
 90 98  1  0  0  0  0
 42 99  1  0  0  0  0
 43 99  1  0  0  0  0
 66 99  1  0  0  0  0
 42100  1  0  0  0  0
 73100  1  0  0  0  0
 95100  1  0  0  0  0
 44101  1  0  0  0  0
 55101  1  0  0  0  0
 57102  1  0  0  0  0
 65102  1  0  0  0  0
 96102  1  0  0  0  0
 44103  1  0  0  0  0
 53103  1  0  0  0  0
 88103  1  0  0  0  0
 46104  1  0  0  0  0
 69104  1  0  0  0  0
 48105  1  0  0  0  0
 53105  1  0  0  0  0
101105  1  0  0  0  0
 50106  1  0  0  0  0
 74106  1  0  0  0  0
 97106  1  0  0  0  0
 45107  1  0  0  0  0
 58107  1  0  0  0  0
 64108  1  0  0  0  0
 69108  1  0  0  0  0
107108  1  0  0  0  0
 46109  1  0  0  0  0
 72109  1  0  0  0  0
104109  1  0  0  0  0
 41110  1  0  0  0  0
 58110  1  0  0  0  0
 95110  1  0  0  0  0
 43111  1  0  0  0  0
 73111  1  0  0  0  0
 76111  1  0  0  0  0
 71112  1  0  0  0  0
 93112  1  0  0  0  0
 94112  1  0  0  0  0
M  END
