 xtb: 6.7.1pre (5071a88)
          08312621073D

127167  0     0  0            999 V2000
   -0.6437   -1.1453    7.2091 O   0  0  0  0  0  0  0  0  0  0  0  0
    0.0165   -0.2518    7.7222 C   0  0  0  0  0  0  0  0  0  0  0  0
   -0.6939    1.0211    8.0784 C   0  0  0  0  0  0  0  0  0  0  0  0
   -1.9789    0.8193    8.5812 C   0  0  0  0  0  0  0  0  0  0  0  0
   -2.8582    1.8584    8.8306 C   0  0  0  0  0  0  0  0  0  0  0  0
   -4.2510    1.5779    9.3304 C   0  0  0  0  0  0  0  0  0  0  0  0
   -4.7731    0.2449    8.8751 C   0  0  0  0  0  0  0  0  0  0  0  0
   -5.1145   -0.5760    9.8092 N   0  0  0  0  0  0  0  0  0  0  0  0
   -5.5884   -1.7818    9.4865 N   0  0  0  0  0  0  0  0  0  0  0  0
   -5.7555   -2.3043    8.2239 C   0  0  0  0  0  0  0  0  0  0  0  0
   -6.2064   -3.4242    8.0768 O   0  0  0  0  0  0  0  0  0  0  0  0
   -5.3556   -1.3846    7.1552 C   0  0  0  0  0  0  0  0  0  0  0  0
   -5.4606   -1.7857    5.8233 C   0  0  0  0  0  0  0  0  0  0  0  0
   -5.1047   -0.9211    4.8128 C   0  0  0  0  0  0  0  0  0  0  0  0
   -4.6350    0.3546    5.1204 C   0  0  0  0  0  0  0  0  0  0  0  0
   -4.5193    0.7610    6.4309 C   0  0  0  0  0  0  0  0  0  0  0  0
   -4.8745   -0.1001    7.4756 C   0  0  0  0  0  0  0  0  0  0  0  0
   -2.4347    3.1603    8.5879 C   0  0  0  0  0  0  0  0  0  0  0  0
   -1.1670    3.3960    8.0951 C   0  0  0  0  0  0  0  0  0  0  0  0
   -0.3147    2.3352    7.8353 C   0  0  0  0  0  0  0  0  0  0  0  0
    0.8931    2.6492    7.3263 F   0  0  0  0  0  0  0  0  0  0  0  0
    1.3111   -0.4329    8.0451 N   0  0  0  0  0  0  0  0  0  0  0  0
    1.9092   -1.7179    7.7347 C   0  0  0  0  0  0  0  0  0  0  0  0
    3.3235   -1.5543    7.1991 C   0  0  0  0  0  0  0  0  0  0  0  0
    4.1407   -0.8101    8.1430 N   0  0  0  0  0  0  0  0  0  0  0  0
    5.4095   -0.4156    7.8596 C   0  0  0  0  0  0  0  0  0  0  0  0
    6.0218    0.3533    8.5787 O   0  0  0  0  0  0  0  0  0  0  0  0
    5.9867   -1.0063    6.6091 C   0  0  0  0  0  0  0  0  0  0  0  0
    7.1989   -0.3549    6.0172 C   0  0  0  0  0  0  0  0  0  0  0  0
    5.8749   -0.1997    5.3407 C   0  0  0  0  0  0  0  0  0  0  0  0
    3.4221   -0.1643    9.2205 C   0  0  0  0  0  0  0  0  0  0  0  0
    2.1926    0.5415    8.6555 C   0  0  0  0  0  0  0  0  0  0  0  0
   -2.2894   -0.2011    8.7454 H   0  0  0  0  0  0  0  0  0  0  0  0
   -4.9260    2.3693    8.9946 H   0  0  0  0  0  0  0  0  0  0  0  0
   -4.2570    1.5730   10.4237 H   0  0  0  0  0  0  0  0  0  0  0  0
   -5.8390   -2.3647   10.2777 H   0  0  0  0  0  0  0  0  0  0  0  0
   -5.8278   -2.7804    5.6213 H   0  0  0  0  0  0  0  0  0  0  0  0
   -5.1910   -1.2249    3.7809 H   0  0  0  0  0  0  0  0  0  0  0  0
   -4.3541    1.0279    4.3266 H   0  0  0  0  0  0  0  0  0  0  0  0
   -4.1465    1.7485    6.6510 H   0  0  0  0  0  0  0  0  0  0  0  0
   -3.1014    3.9903    8.7705 H   0  0  0  0  0  0  0  0  0  0  0  0
   -0.8248    4.3972    7.8850 H   0  0  0  0  0  0  0  0  0  0  0  0
    1.9104   -2.3485    8.6323 H   0  0  0  0  0  0  0  0  0  0  0  0
    1.2806   -2.1958    6.9807 H   0  0  0  0  0  0  0  0  0  0  0  0
    3.2867   -1.0293    6.2410 H   0  0  0  0  0  0  0  0  0  0  0  0
    3.7487   -2.5497    7.0351 H   0  0  0  0  0  0  0  0  0  0  0  0
    5.8892   -2.0808    6.5260 H   0  0  0  0  0  0  0  0  0  0  0  0
    7.5983    0.4927    6.5528 H   0  0  0  0  0  0  0  0  0  0  0  0
    7.9469   -0.9843    5.5602 H   0  0  0  0  0  0  0  0  0  0  0  0
    5.6926   -0.7319    4.4199 H   0  0  0  0  0  0  0  0  0  0  0  0
    5.3810    0.7582    5.3966 H   0  0  0  0  0  0  0  0  0  0  0  0
    3.1385   -0.8962    9.9839 H   0  0  0  0  0  0  0  0  0  0  0  0
    4.1033    0.5626    9.6686 H   0  0  0  0  0  0  0  0  0  0  0  0
    1.6638    1.0785    9.4487 H   0  0  0  0  0  0  0  0  0  0  0  0
    2.5349    1.2611    7.9050 H   0  0  0  0  0  0  0  0  0  0  0  0
    3.8799   -1.5896    1.2742 B   0  0  0  0  0  0  0  0  0  0  0  0
    3.7597    0.9337    0.4019 N   0  0  0  0  0  0  0  0  0  0  0  0
    2.1963    2.0875   -1.4494 B   0  0  0  0  0  0  0  0  0  0  0  0
    1.2985   -0.9798   -2.4671 N   0  0  0  0  0  0  0  0  0  0  0  0
    1.5709   -3.3939    3.4158 B   0  0  0  0  0  0  0  0  0  0  0  0
   -2.1244   -2.2702    3.6638 N   0  0  0  0  0  0  0  0  0  0  0  0
    0.0231    4.2870    2.5239 B   0  0  0  0  0  0  0  0  0  0  0  0
   -1.8166   -0.1769   -2.6473 N   0  0  0  0  0  0  0  0  0  0  0  0
   -1.6632    1.2220   -2.9662 B   0  0  0  0  0  0  0  0  0  0  0  0
    0.4788   -3.9574   -0.8844 N   0  0  0  0  0  0  0  0  0  0  0  0
   -3.5107    2.4834    1.4941 B   0  0  0  0  0  0  0  0  0  0  0  0
   -2.7332    2.9020    0.4039 N   0  0  0  0  0  0  0  0  0  0  0  0
   -0.2173    0.3982   -4.3055 B   0  0  0  0  0  0  0  0  0  0  0  0
    1.0875    3.5717    3.2446 N   0  0  0  0  0  0  0  0  0  0  0  0
   -0.1459   -3.1034   -1.8611 B   0  0  0  0  0  0  0  0  0  0  0  0
   -0.4813    3.7360   -0.2890 N   0  0  0  0  0  0  0  0  0  0  0  0
    0.6526    2.4680    3.9619 B   0  0  0  0  0  0  0  0  0  0  0  0
    2.9059   -1.1508    3.6608 N   0  0  0  0  0  0  0  0  0  0  0  0
   -0.7502    3.3313   -1.6262 B   0  0  0  0  0  0  0  0  0  0  0  0
    2.7508    0.2407    3.9497 N   0  0  0  0  0  0  0  0  0  0  0  0
   -2.4593   -0.6192   -1.4573 B   0  0  0  0  0  0  0  0  0  0  0  0
   -3.0631    2.1510    2.7732 N   0  0  0  0  0  0  0  0  0  0  0  0
    1.1022    4.5432    1.4056 B   0  0  0  0  0  0  0  0  0  0  0  0
    1.7517    0.2951    4.9601 N   0  0  0  0  0  0  0  0  0  0  0  0
   -1.7136    2.5563    3.0588 B   0  0  0  0  0  0  0  0  0  0  0  0
    3.3974   -0.4576   -1.1903 N   0  0  0  0  0  0  0  0  0  0  0  0
   -1.7851   -3.3572    2.8745 B   0  0  0  0  0  0  0  0  0  0  0  0
    2.1034    3.7962    2.2079 N   0  0  0  0  0  0  0  0  0  0  0  0
   -0.4774   -0.4005    4.5444 B   0  0  0  0  0  0  0  0  0  0  0  0
   -2.4658   -3.4010    1.5679 N   0  0  0  0  0  0  0  0  0  0  0  0
    2.3873   -1.3847   -1.5334 B   0  0  0  0  0  0  0  0  0  0  0  0
   -3.0102   -1.0049    1.6678 N   0  0  0  0  0  0  0  0  0  0  0  0
    2.7410    2.8685    1.3144 B   0  0  0  0  0  0  0  0  0  0  0  0
   -1.3264   -2.9887   -1.0156 N   0  0  0  0  0  0  0  0  0  0  0  0
   -2.3979   -2.1184   -0.7367 B   0  0  0  0  0  0  0  0  0  0  0  0
    0.8564    3.9079    0.1583 N   0  0  0  0  0  0  0  0  0  0  0  0
    0.1944    2.6660   -2.7935 B   0  0  0  0  0  0  0  0  0  0  0  0
    0.6094   -4.2040    2.7878 N   0  0  0  0  0  0  0  0  0  0  0  0
   -1.4924    3.5644    0.7491 B   0  0  0  0  0  0  0  0  0  0  0  0
   -1.2042    3.6464    2.1768 N   0  0  0  0  0  0  0  0  0  0  0  0
    1.8374   -4.1882    2.0866 B   0  0  0  0  0  0  0  0  0  0  0  0
    0.9315    1.4141    4.8989 N   0  0  0  0  0  0  0  0  0  0  0  0
   -2.8766   -2.2403    0.8626 B   0  0  0  0  0  0  0  0  0  0  0  0
   -0.7278   -4.2874    2.5193 N   0  0  0  0  0  0  0  0  0  0  0  0
   -2.9130    0.5634   -0.3289 B   0  0  0  0  0  0  0  0  0  0  0  0
    2.3145   -4.0027    0.7734 N   0  0  0  0  0  0  0  0  0  0  0  0
    4.0457   -0.4401    0.1617 B   0  0  0  0  0  0  0  0  0  0  0  0
    1.1807    1.6513   -2.3244 N   0  0  0  0  0  0  0  0  0  0  0  0
   -0.4302    1.8762   -4.0444 B   0  0  0  0  0  0  0  0  0  0  0  0
   -3.8540    1.1462    1.8623 N   0  0  0  0  0  0  0  0  0  0  0  0
   -2.0790    2.3577   -1.8446 B   0  0  0  0  0  0  0  0  0  0  0  0
   -2.7740    1.9719   -0.6882 N   0  0  0  0  0  0  0  0  0  0  0  0
    3.1010   -2.8131    0.5537 B   0  0  0  0  0  0  0  0  0  0  0  0
    1.8070   -3.8813   -0.5679 N   0  0  0  0  0  0  0  0  0  0  0  0
    3.2335    0.5706    2.6272 B   0  0  0  0  0  0  0  0  0  0  0  0
   -0.4510    1.0280    4.8398 N   0  0  0  0  0  0  0  0  0  0  0  0
   -1.2448   -4.0843    1.1662 B   0  0  0  0  0  0  0  0  0  0  0  0
   -3.2048    0.2478    1.0329 N   0  0  0  0  0  0  0  0  0  0  0  0
    3.2515    0.9678   -0.9668 B   0  0  0  0  0  0  0  0  0  0  0  0
    3.3162    1.5646    1.5909 N   0  0  0  0  0  0  0  0  0  0  0  0
    0.2096   -1.8769   -2.8340 B   0  0  0  0  0  0  0  0  0  0  0  0
   -0.7675    2.1134    3.9769 N   0  0  0  0  0  0  0  0  0  0  0  0
    0.9615    0.3542   -2.9494 B   0  0  0  0  0  0  0  0  0  0  0  0
   -1.6523   -0.9428    4.0488 N   0  0  0  0  0  0  0  0  0  0  0  0
   -0.8418   -0.8668   -3.5495 B   0  0  0  0  0  0  0  0  0  0  0  0
   -0.6739   -3.7976   -0.0514 N   0  0  0  0  0  0  0  0  0  0  0  0
    1.7066   -1.8795    4.0300 B   0  0  0  0  0  0  0  0  0  0  0  0
    0.8823   -0.8793    4.6632 N   0  0  0  0  0  0  0  0  0  0  0  0
   -2.5942   -1.1018    3.0031 B   0  0  0  0  0  0  0  0  0  0  0  0
    3.5335   -0.8662    2.4256 N   0  0  0  0  0  0  0  0  0  0  0  0
    2.0317    3.1864   -0.2286 B   0  0  0  0  0  0  0  0  0  0  0  0
    2.4426   -2.5771   -0.7090 N   0  0  0  0  0  0  0  0  0  0  0  0
  1  2  2  0  0  0  0
  2  3  1  0  0  0  0
  3  4  4  0  0  0  0
  4  5  4  0  0  0  0
  5  6  1  0  0  0  0
  6  7  1  0  0  0  0
  7  8  2  0  0  0  0
  8  9  1  0  0  0  0
  9 10  1  0  0  0  0
 10 11  2  0  0  0  0
 10 12  1  0  0  0  0
 12 13  4  0  0  0  0
 13 14  4  0  0  0  0
 14 15  4  0  0  0  0
 15 16  4  0  0  0  0
  7 17  1  0  0  0  0
 12 17  4  0  0  0  0
 16 17  4  0  0  0  0
  5 18  4  0  0  0  0
 18 19  4  0  0  0  0
  3 20  4  0  0  0  0
 19 20  4  0  0  0  0
 20 21  1  0  0  0  0
  2 22  4  0  0  0  0
 22 23  1  0  0  0  0
 23 24  1  0  0  0  0
 24 25  1  0  0  0  0
 25 26  4  0  0  0  0
 26 27  2  0  0  0  0
 26 28  1  0  0  0  0
 28 29  1  0  0  0  0
 28 30  1  0  0  0  0
 29 30  1  0  0  0  0
 25 31  1  0  0  0  0
 22 32  1  0  0  0  0
 31 32  1  0  0  0  0
  4 33  1  0  0  0  0
  6 34  1  0  0  0  0
  6 35  1  0  0  0  0
  9 36  1  0  0  0  0
 13 37  1  0  0  0  0
 14 38  1  0  0  0  0
 15 39  1  0  0  0  0
 16 40  1  0  0  0  0
 18 41  1  0  0  0  0
 19 42  1  0  0  0  0
 23 43  1  0  0  0  0
 23 44  1  0  0  0  0
 24 45  1  0  0  0  0
 24 46  1  0  0  0  0
 28 47  1  0  0  0  0
 29 48  1  0  0  0  0
 29 49  1  0  0  0  0
 30 50  1  0  0  0  0
 30 51  1  0  0  0  0
 31 52  1  0  0  0  0
 31 53  1  0  0  0  0
 32 54  1  0  0  0  0
 32 55  1  0  0  0  0
 63 64  1  0  0  0  0
 66 67  1  0  0  0  0
 62 69  1  0  0  0  0
 65 70  1  0  0  0  0
 69 72  1  0  0  0  0
 71 74  1  0  0  0  0
 73 75  1  0  0  0  0
 63 76  1  0  0  0  0
 66 77  1  0  0  0  0
 62 78  1  0  0  0  0
 75 79  1  0  0  0  0
 77 80  1  0  0  0  0
 61 82  1  0  0  0  0
 69 83  1  0  0  0  0
 78 83  1  0  0  0  0
 82 85  1  0  0  0  0
 59 86  1  0  0  0  0
 81 86  1  0  0  0  0
 83 88  1  0  0  0  0
 70 89  1  0  0  0  0
 76 90  1  0  0  0  0
 89 90  1  0  0  0  0
 71 91  1  0  0  0  0
 78 91  1  0  0  0  0
 74 92  1  0  0  0  0
 60 93  1  0  0  0  0
 67 94  1  0  0  0  0
 71 94  1  0  0  0  0
 62 95  1  0  0  0  0
 80 95  1  0  0  0  0
 94 95  1  0  0  0  0
 60 96  1  0  0  0  0
 93 96  1  0  0  0  0
 72 97  1  0  0  0  0
 79 97  1  0  0  0  0
 85 98  1  0  0  0  0
 87 98  1  0  0  0  0
 90 98  1  0  0  0  0
 82 99  1  0  0  0  0
 93 99  1  0  0  0  0
 76100  1  0  0  0  0
 96101  1  0  0  0  0
 56102  1  0  0  0  0
 57102  1  0  0  0  0
 81102  1  0  0  0  0
 58103  1  0  0  0  0
 92103  1  0  0  0  0
 64104  1  0  0  0  0
 68104  1  0  0  0  0
 92104  1  0  0  0  0
 66105  1  0  0  0  0
 77105  1  0  0  0  0
 64106  1  0  0  0  0
 74106  1  0  0  0  0
 67107  1  0  0  0  0
100107  1  0  0  0  0
106107  1  0  0  0  0
 56108  1  0  0  0  0
101108  1  0  0  0  0
 65109  1  0  0  0  0
101109  1  0  0  0  0
 75110  1  0  0  0  0
 84111  1  0  0  0  0
 97111  1  0  0  0  0
 85112  1  0  0  0  0
 99112  1  0  0  0  0
 87113  1  0  0  0  0
100113  1  0  0  0  0
105113  1  0  0  0  0
 57114  1  0  0  0  0
 58114  1  0  0  0  0
 81114  1  0  0  0  0
 57115  1  0  0  0  0
 88115  1  0  0  0  0
110115  1  0  0  0  0
 59116  1  0  0  0  0
 70116  1  0  0  0  0
 72117  1  0  0  0  0
 80117  1  0  0  0  0
111117  1  0  0  0  0
 59118  1  0  0  0  0
 68118  1  0  0  0  0
103118  1  0  0  0  0
 61119  1  0  0  0  0
 84119  1  0  0  0  0
 63120  1  0  0  0  0
 68120  1  0  0  0  0
116120  1  0  0  0  0
 65121  1  0  0  0  0
 89121  1  0  0  0  0
112121  1  0  0  0  0
 60122  1  0  0  0  0
 73122  1  0  0  0  0
 79123  1  0  0  0  0
 84123  1  0  0  0  0
122123  1  0  0  0  0
 61124  1  0  0  0  0
 87124  1  0  0  0  0
119124  1  0  0  0  0
 56125  1  0  0  0  0
 73125  1  0  0  0  0
110125  1  0  0  0  0
 58126  1  0  0  0  0
 88126  1  0  0  0  0
 91126  1  0  0  0  0
 86127  1  0  0  0  0
108127  1  0  0  0  0
109127  1  0  0  0  0
M  END
