 xtb: 6.7.1pre (5071a88)
          08312622223D

127166  0     0  0            999 V2000
    0.9510   -5.1939   10.8573 C   0  0  0  0  0  0  0  0  0  0  0  0
    1.0134   -3.8082   10.5479 O   0  0  0  0  0  0  0  0  0  0  0  0
   -0.1718   -3.1261   10.4297 C   0  0  0  0  0  0  0  0  0  0  0  0
   -1.4368   -3.6987   10.6030 C   0  0  0  0  0  0  0  0  0  0  0  0
   -2.6048   -2.9591   10.4703 C   0  0  0  0  0  0  0  0  0  0  0  0
   -3.7718   -3.5791   10.6630 N   0  0  0  0  0  0  0  0  0  0  0  0
   -4.8770   -2.8384   10.5355 C   0  0  0  0  0  0  0  0  0  0  0  0
   -4.9231   -1.5427   10.2179 N   0  0  0  0  0  0  0  0  0  0  0  0
   -3.7462   -0.9264   10.0101 C   0  0  0  0  0  0  0  0  0  0  0  0
   -3.7410    0.4427    9.6214 N   0  0  0  0  0  0  0  0  0  0  0  0
   -4.8068    1.3691    9.6924 C   0  0  0  0  0  0  0  0  0  0  0  0
   -4.8115    2.4694    8.8176 C   0  0  0  0  0  0  0  0  0  0  0  0
   -5.8099    3.4445    8.8928 C   0  0  0  0  0  0  0  0  0  0  0  0
   -6.7995    3.3409    9.8626 C   0  0  0  0  0  0  0  0  0  0  0  0
   -7.7469    4.2883    9.9201 F   0  0  0  0  0  0  0  0  0  0  0  0
   -6.7936    2.2806   10.7629 C   0  0  0  0  0  0  0  0  0  0  0  0
   -8.0012    2.1629   11.9855 Cl  0  0  0  0  0  0  0  0  0  0  0  0
   -5.7944    1.3072   10.6863 C   0  0  0  0  0  0  0  0  0  0  0  0
   -2.5149   -1.6016   10.1410 C   0  0  0  0  0  0  0  0  0  0  0  0
   -1.2362   -1.0081    9.9775 C   0  0  0  0  0  0  0  0  0  0  0  0
   -0.0698   -1.7606   10.1231 C   0  0  0  0  0  0  0  0  0  0  0  0
    1.1997   -1.2654    9.9762 O   0  0  0  0  0  0  0  0  0  0  0  0
    1.3617    0.1473    9.8679 C   0  0  0  0  0  0  0  0  0  0  0  0
    2.8617    0.4429    9.8595 C   0  0  0  0  0  0  0  0  0  0  0  0
    3.1217    1.9425    9.7380 C   0  0  0  0  0  0  0  0  0  0  0  0
    4.5083    2.4002    9.7198 N   0  0  0  0  0  0  0  0  0  0  0  0
    5.2563    2.2334   10.9742 C   0  0  0  0  0  0  0  0  0  0  0  0
    6.0905    0.9462   11.0796 C   0  0  0  0  0  0  0  0  0  0  0  0
    6.9329    0.7735    9.9353 O   0  0  0  0  0  0  0  0  0  0  0  0
    6.1391    0.7102    8.7460 C   0  0  0  0  0  0  0  0  0  0  0  0
    5.3072    1.9893    8.5565 C   0  0  0  0  0  0  0  0  0  0  0  0
    0.4287   -5.7507   10.0724 H   0  0  0  0  0  0  0  0  0  0  0  0
    0.4890   -5.3591   11.8361 H   0  0  0  0  0  0  0  0  0  0  0  0
    1.9767   -5.5719   10.9062 H   0  0  0  0  0  0  0  0  0  0  0  0
   -1.5477   -4.7495   10.8525 H   0  0  0  0  0  0  0  0  0  0  0  0
   -5.8256   -3.3375   10.7022 H   0  0  0  0  0  0  0  0  0  0  0  0
   -3.2341    0.5226    8.7451 H   0  0  0  0  0  0  0  0  0  0  0  0
   -4.0379    2.5760    8.0608 H   0  0  0  0  0  0  0  0  0  0  0  0
   -5.8182    4.2852    8.2062 H   0  0  0  0  0  0  0  0  0  0  0  0
   -5.7885    0.4999   11.4138 H   0  0  0  0  0  0  0  0  0  0  0  0
   -1.1807    0.0505    9.7479 H   0  0  0  0  0  0  0  0  0  0  0  0
    0.8944    0.6495   10.7237 H   0  0  0  0  0  0  0  0  0  0  0  0
    0.9133    0.5023    8.9325 H   0  0  0  0  0  0  0  0  0  0  0  0
    3.2989    0.0408   10.7790 H   0  0  0  0  0  0  0  0  0  0  0  0
    3.3176   -0.1036    9.0276 H   0  0  0  0  0  0  0  0  0  0  0  0
    2.6325    2.3108    8.8264 H   0  0  0  0  0  0  0  0  0  0  0  0
    2.6034    2.4588   10.5569 H   0  0  0  0  0  0  0  0  0  0  0  0
    5.9534    3.0797   11.0310 H   0  0  0  0  0  0  0  0  0  0  0  0
    4.5985    2.3290   11.8461 H   0  0  0  0  0  0  0  0  0  0  0  0
    6.7409    1.0047   11.9586 H   0  0  0  0  0  0  0  0  0  0  0  0
    5.4636    0.0575   11.2001 H   0  0  0  0  0  0  0  0  0  0  0  0
    5.5137   -0.1871    8.7808 H   0  0  0  0  0  0  0  0  0  0  0  0
    6.8253    0.5935    7.9007 H   0  0  0  0  0  0  0  0  0  0  0  0
    4.6865    1.9062    7.6567 H   0  0  0  0  0  0  0  0  0  0  0  0
    6.0099    2.8098    8.3608 H   0  0  0  0  0  0  0  0  0  0  0  0
    3.4592   -1.4546    1.6280 B   0  0  0  0  0  0  0  0  0  0  0  0
    3.4564    1.1299    0.9400 N   0  0  0  0  0  0  0  0  0  0  0  0
    2.5399    2.3625   -1.2610 B   0  0  0  0  0  0  0  0  0  0  0  0
    2.2931   -0.6416   -2.7306 N   0  0  0  0  0  0  0  0  0  0  0  0
    0.6905   -3.5611    2.7027 B   0  0  0  0  0  0  0  0  0  0  0  0
   -2.9397   -2.6548    1.7095 N   0  0  0  0  0  0  0  0  0  0  0  0
   -1.0382    4.0851    1.8312 B   0  0  0  0  0  0  0  0  0  0  0  0
   -0.6193    0.0177   -3.9419 N   0  0  0  0  0  0  0  0  0  0  0  0
   -0.4737    1.4453   -4.0917 B   0  0  0  0  0  0  0  0  0  0  0  0
    1.2096   -3.7868   -1.7394 N   0  0  0  0  0  0  0  0  0  0  0  0
   -3.8445    2.2094   -0.4937 B   0  0  0  0  0  0  0  0  0  0  0  0
   -2.7729    2.7636   -1.2118 N   0  0  0  0  0  0  0  0  0  0  0  0
    1.4057    0.8181   -4.8893 B   0  0  0  0  0  0  0  0  0  0  0  0
   -0.2358    3.3642    2.8335 N   0  0  0  0  0  0  0  0  0  0  0  0
    0.8983   -2.8798   -2.8138 B   0  0  0  0  0  0  0  0  0  0  0  0
   -0.4918    3.7666   -1.0101 N   0  0  0  0  0  0  0  0  0  0  0  0
   -0.8060    2.1823    3.2819 B   0  0  0  0  0  0  0  0  0  0  0  0
    1.6561   -1.2744    3.5036 N   0  0  0  0  0  0  0  0  0  0  0  0
   -0.2485    3.4699   -2.3799 B   0  0  0  0  0  0  0  0  0  0  0  0
    1.3087    0.0689    3.8170 N   0  0  0  0  0  0  0  0  0  0  0  0
   -1.5974   -0.5599   -3.0847 B   0  0  0  0  0  0  0  0  0  0  0  0
   -3.8325    1.7768    0.8316 N   0  0  0  0  0  0  0  0  0  0  0  0
    0.3376    4.4960    1.1839 B   0  0  0  0  0  0  0  0  0  0  0  0
    0.0433   -0.0140    4.4567 N   0  0  0  0  0  0  0  0  0  0  0  0
   -2.7088    2.2268    1.6012 B   0  0  0  0  0  0  0  0  0  0  0  0
    3.7727   -0.1326   -0.7655 N   0  0  0  0  0  0  0  0  0  0  0  0
   -2.2534   -3.6394    1.0085 B   0  0  0  0  0  0  0  0  0  0  0  0
    1.0558    3.7334    2.2357 N   0  0  0  0  0  0  0  0  0  0  0  0
   -1.8256   -0.7775    3.2198 B   0  0  0  0  0  0  0  0  0  0  0  0
   -2.4368   -3.6019   -0.4508 N   0  0  0  0  0  0  0  0  0  0  0  0
    3.0187   -1.0737   -1.5028 B   0  0  0  0  0  0  0  0  0  0  0  0
   -3.1580   -1.2526   -0.3843 N   0  0  0  0  0  0  0  0  0  0  0  0
    2.0347    2.9223    1.5617 B   0  0  0  0  0  0  0  0  0  0  0  0
   -0.5074   -2.9001   -2.4328 N   0  0  0  0  0  0  0  0  0  0  0  0
   -1.6735   -2.1129   -2.4916 B   0  0  0  0  0  0  0  0  0  0  0  0
    0.5901    3.9646   -0.1102 N   0  0  0  0  0  0  0  0  0  0  0  0
    1.0903    2.9596   -3.1825 B   0  0  0  0  0  0  0  0  0  0  0  0
    0.0774   -4.3592    1.7213 N   0  0  0  0  0  0  0  0  0  0  0  0
   -1.7840    3.4524   -0.4082 B   0  0  0  0  0  0  0  0  0  0  0  0
   -2.0135    3.4185    1.0316 N   0  0  0  0  0  0  0  0  0  0  0  0
    1.4659   -4.2121    1.4991 B   0  0  0  0  0  0  0  0  0  0  0  0
   -0.7980    1.0642    4.1946 N   0  0  0  0  0  0  0  0  0  0  0  0
   -2.6662   -2.4021   -1.1753 B   0  0  0  0  0  0  0  0  0  0  0  0
   -1.0744   -4.4843    0.9912 N   0  0  0  0  0  0  0  0  0  0  0  0
   -2.5037    0.4914   -2.1091 B   0  0  0  0  0  0  0  0  0  0  0  0
    2.3527   -3.8873    0.4531 N   0  0  0  0  0  0  0  0  0  0  0  0
    3.9123   -0.2024    0.7259 B   0  0  0  0  0  0  0  0  0  0  0  0
    1.9285    1.9570   -2.4651 N   0  0  0  0  0  0  0  0  0  0  0  0
    1.0012    2.2544   -4.6225 B   0  0  0  0  0  0  0  0  0  0  0  0
   -4.1860    0.8290   -0.3475 N   0  0  0  0  0  0  0  0  0  0  0  0
   -1.3389    2.4537   -3.1149 B   0  0  0  0  0  0  0  0  0  0  0  0
   -2.3596    1.9326   -2.3058 N   0  0  0  0  0  0  0  0  0  0  0  0
    3.0731   -2.6455    0.6011 B   0  0  0  0  0  0  0  0  0  0  0  0
    2.3352   -3.6737   -0.9709 N   0  0  0  0  0  0  0  0  0  0  0  0
    2.2179    0.5458    2.8084 B   0  0  0  0  0  0  0  0  0  0  0  0
   -2.0264    0.6119    3.6015 N   0  0  0  0  0  0  0  0  0  0  0  0
   -1.1017   -4.1838   -0.4410 B   0  0  0  0  0  0  0  0  0  0  0  0
   -3.2181    0.0417   -0.9586 N   0  0  0  0  0  0  0  0  0  0  0  0
    3.4478    1.2586   -0.5141 B   0  0  0  0  0  0  0  0  0  0  0  0
    2.5821    1.6330    1.9365 N   0  0  0  0  0  0  0  0  0  0  0  0
    1.4721   -1.5550   -3.5156 B   0  0  0  0  0  0  0  0  0  0  0  0
   -2.1026    1.7542    2.7608 N   0  0  0  0  0  0  0  0  0  0  0  0
    2.0408    0.7119   -3.2115 B   0  0  0  0  0  0  0  0  0  0  0  0
   -2.7209   -1.3417    2.3206 N   0  0  0  0  0  0  0  0  0  0  0  0
    0.6586   -0.5389   -4.4869 B   0  0  0  0  0  0  0  0  0  0  0  0
   -0.1687   -3.7594   -1.3565 N   0  0  0  0  0  0  0  0  0  0  0  0
    0.4856   -2.1056    3.4338 B   0  0  0  0  0  0  0  0  0  0  0  0
   -0.5873   -1.2050    3.8245 N   0  0  0  0  0  0  0  0  0  0  0  0
   -3.2244   -1.4514    1.0003 B   0  0  0  0  0  0  0  0  0  0  0  0
    2.6713   -0.8555    2.6211 N   0  0  0  0  0  0  0  0  0  0  0  0
    1.8786    3.3393   -0.1064 B   0  0  0  0  0  0  0  0  0  0  0  0
    2.8769   -2.3318   -0.7936 N   0  0  0  0  0  0  0  0  0  0  0  0
  1  2  1  0  0  0  0
  2  3  1  0  0  0  0
  3  4  4  0  0  0  0
  4  5  4  0  0  0  0
  5  6  4  0  0  0  0
  6  7  4  0  0  0  0
  7  8  4  0  0  0  0
  8  9  4  0  0  0  0
  9 10  1  0  0  0  0
 10 11  1  0  0  0  0
 11 12  4  0  0  0  0
 12 13  4  0  0  0  0
 13 14  4  0  0  0  0
 14 15  1  0  0  0  0
 14 16  4  0  0  0  0
 16 17  1  0  0  0  0
 11 18  4  0  0  0  0
 16 18  4  0  0  0  0
  5 19  4  0  0  0  0
  9 19  4  0  0  0  0
 19 20  4  0  0  0  0
  3 21  4  0  0  0  0
 20 21  4  0  0  0  0
 21 22  1  0  0  0  0
 22 23  1  0  0  0  0
 23 24  1  0  0  0  0
 24 25  1  0  0  0  0
 25 26  1  0  0  0  0
 26 27  1  0  0  0  0
 27 28  1  0  0  0  0
 28 29  1  0  0  0  0
 29 30  1  0  0  0  0
 26 31  1  0  0  0  0
 30 31  1  0  0  0  0
  1 32  1  0  0  0  0
  1 33  1  0  0  0  0
  1 34  1  0  0  0  0
  4 35  1  0  0  0  0
  7 36  1  0  0  0  0
 10 37  1  0  0  0  0
 12 38  1  0  0  0  0
 13 39  1  0  0  0  0
 18 40  1  0  0  0  0
 20 41  1  0  0  0  0
 23 42  1  0  0  0  0
 23 43  1  0  0  0  0
 24 44  1  0  0  0  0
 24 45  1  0  0  0  0
 25 46  1  0  0  0  0
 25 47  1  0  0  0  0
 27 48  1  0  0  0  0
 27 49  1  0  0  0  0
 28 50  1  0  0  0  0
 28 51  1  0  0  0  0
 30 52  1  0  0  0  0
 30 53  1  0  0  0  0
 31 54  1  0  0  0  0
 31 55  1  0  0  0  0
 63 64  1  0  0  0  0
 66 67  1  0  0  0  0
 62 69  1  0  0  0  0
 65 70  1  0  0  0  0
 69 72  1  0  0  0  0
 71 74  1  0  0  0  0
 73 75  1  0  0  0  0
 63 76  1  0  0  0  0
 66 77  1  0  0  0  0
 62 78  1  0  0  0  0
 75 79  1  0  0  0  0
 77 80  1  0  0  0  0
 61 82  1  0  0  0  0
 69 83  1  0  0  0  0
 78 83  1  0  0  0  0
 82 85  1  0  0  0  0
 59 86  1  0  0  0  0
 81 86  1  0  0  0  0
 83 88  1  0  0  0  0
 70 89  1  0  0  0  0
 76 90  1  0  0  0  0
 89 90  1  0  0  0  0
 71 91  1  0  0  0  0
 78 91  1  0  0  0  0
 74 92  1  0  0  0  0
 60 93  1  0  0  0  0
 67 94  1  0  0  0  0
 71 94  1  0  0  0  0
 62 95  1  0  0  0  0
 80 95  1  0  0  0  0
 94 95  1  0  0  0  0
 60 96  1  0  0  0  0
 93 96  1  0  0  0  0
 72 97  1  0  0  0  0
 79 97  1  0  0  0  0
 85 98  1  0  0  0  0
 87 98  1  0  0  0  0
 90 98  1  0  0  0  0
 82 99  1  0  0  0  0
 93 99  1  0  0  0  0
 76100  1  0  0  0  0
 96101  1  0  0  0  0
 56102  1  0  0  0  0
 57102  1  0  0  0  0
 81102  1  0  0  0  0
 58103  1  0  0  0  0
 92103  1  0  0  0  0
 64104  1  0  0  0  0
 68104  1  0  0  0  0
 92104  1  0  0  0  0
 66105  1  0  0  0  0
 77105  1  0  0  0  0
 64106  1  0  0  0  0
 74106  1  0  0  0  0
 67107  1  0  0  0  0
100107  1  0  0  0  0
106107  1  0  0  0  0
 56108  1  0  0  0  0
101108  1  0  0  0  0
 65109  1  0  0  0  0
101109  1  0  0  0  0
 75110  1  0  0  0  0
 84111  1  0  0  0  0
 97111  1  0  0  0  0
 85112  1  0  0  0  0
 99112  1  0  0  0  0
 87113  1  0  0  0  0
100113  1  0  0  0  0
105113  1  0  0  0  0
 57114  1  0  0  0  0
 58114  1  0  0  0  0
 81114  1  0  0  0  0
 57115  1  0  0  0  0
 88115  1  0  0  0  0
110115  1  0  0  0  0
 59116  1  0  0  0  0
 70116  1  0  0  0  0
 72117  1  0  0  0  0
 80117  1  0  0  0  0
111117  1  0  0  0  0
 59118  1  0  0  0  0
 68118  1  0  0  0  0
103118  1  0  0  0  0
 61119  1  0  0  0  0
 84119  1  0  0  0  0
 63120  1  0  0  0  0
 68120  1  0  0  0  0
116120  1  0  0  0  0
 65121  1  0  0  0  0
 89121  1  0  0  0  0
112121  1  0  0  0  0
 60122  1  0  0  0  0
 73122  1  0  0  0  0
 79123  1  0  0  0  0
 84123  1  0  0  0  0
122123  1  0  0  0  0
 61124  1  0  0  0  0
 87124  1  0  0  0  0
119124  1  0  0  0  0
 56125  1  0  0  0  0
 73125  1  0  0  0  0
110125  1  0  0  0  0
 58126  1  0  0  0  0
 88126  1  0  0  0  0
 91126  1  0  0  0  0
 86127  1  0  0  0  0
108127  1  0  0  0  0
109127  1  0  0  0  0
M  END
