 xtb: 6.7.1pre (5071a88)
          08312618413D

127109  0     0  0            999 V2000
    0.9510   -5.1939    0.8345 C   0  0  0  0  0  0  0  0  0  0  0  0
    1.0134   -3.8082    0.5251 O   0  0  0  0  0  0  0  0  0  0  0  0
   -0.1718   -3.1261    0.4069 C   0  0  0  0  0  0  0  0  0  0  0  0
   -1.4368   -3.6987    0.5801 C   0  0  0  0  0  0  0  0  0  0  0  0
   -2.6048   -2.9591    0.4474 C   0  0  0  0  0  0  0  0  0  0  0  0
   -3.7718   -3.5791    0.6401 N   0  0  0  0  0  0  0  0  0  0  0  0
   -4.8770   -2.8384    0.5127 C   0  0  0  0  0  0  0  0  0  0  0  0
   -4.9231   -1.5427    0.1951 N   0  0  0  0  0  0  0  0  0  0  0  0
   -3.7462   -0.9264   -0.0128 C   0  0  0  0  0  0  0  0  0  0  0  0
   -3.7410    0.4427   -0.4015 N   0  0  0  0  0  0  0  0  0  0  0  0
   -4.8068    1.3691   -0.3304 C   0  0  0  0  0  0  0  0  0  0  0  0
   -4.8115    2.4694   -1.2052 C   0  0  0  0  0  0  0  0  0  0  0  0
   -5.8099    3.4445   -1.1301 C   0  0  0  0  0  0  0  0  0  0  0  0
   -6.7995    3.3409   -0.1602 C   0  0  0  0  0  0  0  0  0  0  0  0
   -7.7469    4.2883   -0.1028 F   0  0  0  0  0  0  0  0  0  0  0  0
   -6.7936    2.2806    0.7401 C   0  0  0  0  0  0  0  0  0  0  0  0
   -8.0012    2.1629    1.9626 Cl  0  0  0  0  0  0  0  0  0  0  0  0
   -5.7944    1.3072    0.6635 C   0  0  0  0  0  0  0  0  0  0  0  0
   -2.5149   -1.6016    0.1182 C   0  0  0  0  0  0  0  0  0  0  0  0
   -1.2362   -1.0081   -0.0454 C   0  0  0  0  0  0  0  0  0  0  0  0
   -0.0698   -1.7606    0.1003 C   0  0  0  0  0  0  0  0  0  0  0  0
    1.1997   -1.2654   -0.0467 O   0  0  0  0  0  0  0  0  0  0  0  0
    1.3617    0.1473   -0.1549 C   0  0  0  0  0  0  0  0  0  0  0  0
    2.8617    0.4429   -0.1633 C   0  0  0  0  0  0  0  0  0  0  0  0
    3.1217    1.9425   -0.2848 C   0  0  0  0  0  0  0  0  0  0  0  0
    4.5083    2.4002   -0.3031 N   0  0  0  0  0  0  0  0  0  0  0  0
    5.2563    2.2334    0.9514 C   0  0  0  0  0  0  0  0  0  0  0  0
    6.0905    0.9462    1.0568 C   0  0  0  0  0  0  0  0  0  0  0  0
    6.9329    0.7735   -0.0875 O   0  0  0  0  0  0  0  0  0  0  0  0
    6.1391    0.7102   -1.2769 C   0  0  0  0  0  0  0  0  0  0  0  0
    5.3072    1.9893   -1.4663 C   0  0  0  0  0  0  0  0  0  0  0  0
    0.4287   -5.7507    0.0496 H   0  0  0  0  0  0  0  0  0  0  0  0
    0.4890   -5.3591    1.8133 H   0  0  0  0  0  0  0  0  0  0  0  0
    1.9767   -5.5719    0.8834 H   0  0  0  0  0  0  0  0  0  0  0  0
   -1.5477   -4.7495    0.8296 H   0  0  0  0  0  0  0  0  0  0  0  0
   -5.8256   -3.3375    0.6793 H   0  0  0  0  0  0  0  0  0  0  0  0
   -3.2341    0.5226   -1.2778 H   0  0  0  0  0  0  0  0  0  0  0  0
   -4.0379    2.5760   -1.9621 H   0  0  0  0  0  0  0  0  0  0  0  0
   -5.8182    4.2852   -1.8167 H   0  0  0  0  0  0  0  0  0  0  0  0
   -5.7885    0.4999    1.3909 H   0  0  0  0  0  0  0  0  0  0  0  0
   -1.1807    0.0505   -0.2750 H   0  0  0  0  0  0  0  0  0  0  0  0
    0.8944    0.6495    0.7009 H   0  0  0  0  0  0  0  0  0  0  0  0
    0.9133    0.5023   -1.0903 H   0  0  0  0  0  0  0  0  0  0  0  0
    3.2989    0.0408    0.7561 H   0  0  0  0  0  0  0  0  0  0  0  0
    3.3176   -0.1036   -0.9952 H   0  0  0  0  0  0  0  0  0  0  0  0
    2.6325    2.3108   -1.1964 H   0  0  0  0  0  0  0  0  0  0  0  0
    2.6034    2.4588    0.5341 H   0  0  0  0  0  0  0  0  0  0  0  0
    5.9534    3.0797    1.0082 H   0  0  0  0  0  0  0  0  0  0  0  0
    4.5985    2.3290    1.8233 H   0  0  0  0  0  0  0  0  0  0  0  0
    6.7409    1.0047    1.9357 H   0  0  0  0  0  0  0  0  0  0  0  0
    5.4636    0.0575    1.1773 H   0  0  0  0  0  0  0  0  0  0  0  0
    5.5137   -0.1871   -1.2421 H   0  0  0  0  0  0  0  0  0  0  0  0
    6.8253    0.5935   -2.1222 H   0  0  0  0  0  0  0  0  0  0  0  0
    4.6865    1.9062   -2.3662 H   0  0  0  0  0  0  0  0  0  0  0  0
    6.0099    2.8098   -1.6620 H   0  0  0  0  0  0  0  0  0  0  0  0
    2.1012    0.0000    3.3450 B   0  0  0  0  0  0  0  0  0  0  0  0
   -2.1012    0.0000    3.3450 B   0  0  0  0  0  0  0  0  0  0  0  0
    0.0000    2.1012    3.3450 B   0  0  0  0  0  0  0  0  0  0  0  0
    0.0000   -2.1012    3.3450 B   0  0  0  0  0  0  0  0  0  0  0  0
    3.3450    2.1012    0.0000 B   0  0  0  0  0  0  0  0  0  0  0  0
    3.3450   -2.1012    0.0000 B   0  0  0  0  0  0  0  0  0  0  0  0
    3.3450    0.0000    2.1012 B   0  0  0  0  0  0  0  0  0  0  0  0
    3.3450    0.0000   -2.1012 B   0  0  0  0  0  0  0  0  0  0  0  0
   -3.3450    2.1012    0.0000 B   0  0  0  0  0  0  0  0  0  0  0  0
   -3.3450   -2.1012    0.0000 B   0  0  0  0  0  0  0  0  0  0  0  0
   -3.3450    0.0000    2.1012 B   0  0  0  0  0  0  0  0  0  0  0  0
   -3.3450    0.0000   -2.1012 B   0  0  0  0  0  0  0  0  0  0  0  0
    2.1012    0.0000   -3.3450 B   0  0  0  0  0  0  0  0  0  0  0  0
   -2.1012    0.0000   -3.3450 B   0  0  0  0  0  0  0  0  0  0  0  0
    0.0000    2.1012   -3.3450 B   0  0  0  0  0  0  0  0  0  0  0  0
    0.0000   -2.1012   -3.3450 B   0  0  0  0  0  0  0  0  0  0  0  0
    0.0000    3.3450    2.1012 B   0  0  0  0  0  0  0  0  0  0  0  0
    0.0000    3.3450   -2.1012 B   0  0  0  0  0  0  0  0  0  0  0  0
    0.0000   -3.3450    2.1012 B   0  0  0  0  0  0  0  0  0  0  0  0
    0.0000   -3.3450   -2.1012 B   0  0  0  0  0  0  0  0  0  0  0  0
    2.1012    3.3450    0.0000 B   0  0  0  0  0  0  0  0  0  0  0  0
   -2.1012    3.3450    0.0000 B   0  0  0  0  0  0  0  0  0  0  0  0
    2.1012   -3.3450    0.0000 B   0  0  0  0  0  0  0  0  0  0  0  0
   -2.1012   -3.3450    0.0000 B   0  0  0  0  0  0  0  0  0  0  0  0
    1.4800    1.4800    3.5800 B   0  0  0  0  0  0  0  0  0  0  0  0
   -1.4800    1.4800    3.5800 B   0  0  0  0  0  0  0  0  0  0  0  0
    1.4800   -1.4800    3.5800 B   0  0  0  0  0  0  0  0  0  0  0  0
   -1.4800   -1.4800    3.5800 B   0  0  0  0  0  0  0  0  0  0  0  0
    3.5800    1.4800    1.4800 B   0  0  0  0  0  0  0  0  0  0  0  0
    3.5800   -1.4800    1.4800 B   0  0  0  0  0  0  0  0  0  0  0  0
    3.5800    1.4800   -1.4800 B   0  0  0  0  0  0  0  0  0  0  0  0
    3.5800   -1.4800   -1.4800 B   0  0  0  0  0  0  0  0  0  0  0  0
   -3.5800    1.4800    1.4800 B   0  0  0  0  0  0  0  0  0  0  0  0
   -3.5800   -1.4800    1.4800 B   0  0  0  0  0  0  0  0  0  0  0  0
   -3.5800    1.4800   -1.4800 B   0  0  0  0  0  0  0  0  0  0  0  0
   -3.5800   -1.4800   -1.4800 B   0  0  0  0  0  0  0  0  0  0  0  0
    2.1012    0.0000    3.9200 N   0  0  0  0  0  0  0  0  0  0  0  0
   -2.1012    0.0000    3.9200 N   0  0  0  0  0  0  0  0  0  0  0  0
    0.0000    2.1012    3.9200 N   0  0  0  0  0  0  0  0  0  0  0  0
    0.0000   -2.1012    3.9200 N   0  0  0  0  0  0  0  0  0  0  0  0
    3.9200    2.1012    0.0000 N   0  0  0  0  0  0  0  0  0  0  0  0
    3.9200   -2.1012    0.0000 N   0  0  0  0  0  0  0  0  0  0  0  0
    3.9200    0.0000    2.1012 N   0  0  0  0  0  0  0  0  0  0  0  0
    3.9200    0.0000   -2.1012 N   0  0  0  0  0  0  0  0  0  0  0  0
   -3.9200    2.1012    0.0000 N   0  0  0  0  0  0  0  0  0  0  0  0
   -3.9200   -2.1012    0.0000 N   0  0  0  0  0  0  0  0  0  0  0  0
   -3.9200    0.0000    2.1012 N   0  0  0  0  0  0  0  0  0  0  0  0
   -3.9200    0.0000   -2.1012 N   0  0  0  0  0  0  0  0  0  0  0  0
    2.1012    0.0000   -3.9200 N   0  0  0  0  0  0  0  0  0  0  0  0
   -2.1012    0.0000   -3.9200 N   0  0  0  0  0  0  0  0  0  0  0  0
    0.0000    2.1012   -3.9200 N   0  0  0  0  0  0  0  0  0  0  0  0
    0.0000   -2.1012   -3.9200 N   0  0  0  0  0  0  0  0  0  0  0  0
    0.0000    3.9200    2.1012 N   0  0  0  0  0  0  0  0  0  0  0  0
    0.0000    3.9200   -2.1012 N   0  0  0  0  0  0  0  0  0  0  0  0
    0.0000   -3.9200    2.1012 N   0  0  0  0  0  0  0  0  0  0  0  0
    0.0000   -3.9200   -2.1012 N   0  0  0  0  0  0  0  0  0  0  0  0
    2.1012    3.9200    0.0000 N   0  0  0  0  0  0  0  0  0  0  0  0
   -2.1012    3.9200    0.0000 N   0  0  0  0  0  0  0  0  0  0  0  0
    2.1012   -3.9200    0.0000 N   0  0  0  0  0  0  0  0  0  0  0  0
   -2.1012   -3.9200    0.0000 N   0  0  0  0  0  0  0  0  0  0  0  0
    1.4800    1.4800    4.2200 N   0  0  0  0  0  0  0  0  0  0  0  0
   -1.4800    1.4800    4.2200 N   0  0  0  0  0  0  0  0  0  0  0  0
    1.4800   -1.4800    4.2200 N   0  0  0  0  0  0  0  0  0  0  0  0
   -1.4800   -1.4800    4.2200 N   0  0  0  0  0  0  0  0  0  0  0  0
    4.2200    1.4800    1.4800 N   0  0  0  0  0  0  0  0  0  0  0  0
    4.2200   -1.4800    1.4800 N   0  0  0  0  0  0  0  0  0  0  0  0
    4.2200    1.4800   -1.4800 N   0  0  0  0  0  0  0  0  0  0  0  0
    4.2200   -1.4800   -1.4800 N   0  0  0  0  0  0  0  0  0  0  0  0
   -4.2200    1.4800    1.4800 N   0  0  0  0  0  0  0  0  0  0  0  0
   -4.2200   -1.4800    1.4800 N   0  0  0  0  0  0  0  0  0  0  0  0
   -4.2200    1.4800   -1.4800 N   0  0  0  0  0  0  0  0  0  0  0  0
   -4.2200   -1.4800   -1.4800 N   0  0  0  0  0  0  0  0  0  0  0  0
  1  2  1  0  0  0  0
  2  3  1  0  0  0  0
  3  4  1  0  0  0  0
  4  5  1  0  0  0  0
  5  6  1  0  0  0  0
  6  7  1  0  0  0  0
  7  8  1  0  0  0  0
  8  9  1  0  0  0  0
  9 10  1  0  0  0  0
 10 11  1  0  0  0  0
 11 12  1  0  0  0  0
 12 13  4  0  0  0  0
 13 14  4  0  0  0  0
 14 15  1  0  0  0  0
 14 16  4  0  0  0  0
 16 17  1  0  0  0  0
 11 18  1  0  0  0  0
 16 18  4  0  0  0  0
  5 19  1  0  0  0  0
  9 19  1  0  0  0  0
 19 20  1  0  0  0  0
  3 21  1  0  0  0  0
 20 21  4  0  0  0  0
 21 22  1  0  0  0  0
 22 23  1  0  0  0  0
 23 24  1  0  0  0  0
 26 27  1  0  0  0  0
 27 28  1  0  0  0  0
 28 29  1  0  0  0  0
 29 30  1  0  0  0  0
 26 31  1  0  0  0  0
 30 31  1  0  0  0  0
  1 32  1  0  0  0  0
  1 33  1  0  0  0  0
  1 34  1  0  0  0  0
  4 35  1  0  0  0  0
  7 36  1  0  0  0  0
 10 37  1  0  0  0  0
 12 38  1  0  0  0  0
 13 39  1  0  0  0  0
 18 40  1  0  0  0  0
 20 41  1  0  0  0  0
 23 42  1  0  0  0  0
 23 43  1  0  0  0  0
 24 44  1  0  0  0  0
 24 45  1  0  0  0  0
 27 48  1  0  0  0  0
 27 49  1  0  0  0  0
 28 50  1  0  0  0  0
 28 51  1  0  0  0  0
 30 52  1  0  0  0  0
 30 53  1  0  0  0  0
 31 54  1  0  0  0  0
 31 55  1  0  0  0  0
 25 60  2  0  0  0  0
  5 65  1  0  0  0  0
 19 65  1  0  0  0  0
 61 78  1  0  0  0  0
  4 79  1  0  0  0  0
  5 79  1  0  0  0  0
 56 92  3  0  0  0  0
 57 93  3  0  0  0  0
 58 94  3  0  0  0  0
 59 95  3  0  0  0  0
 25 96  1  0  0  0  0
 26 96  2  0  0  0  0
 60 96  1  0  0  0  0
 61 97  3  0  0  0  0
 62 98  3  0  0  0  0
 63 99  3  0  0  0  0
 11100  1  0  0  0  0
 64100  3  0  0  0  0
  7101  1  0  0  0  0
  8101  1  0  0  0  0
  9101  1  0  0  0  0
 65101  2  0  0  0  0
 66102  3  0  0  0  0
 67103  3  0  0  0  0
 68104  3  0  0  0  0
 69105  3  0  0  0  0
 70106  3  0  0  0  0
 71107  3  0  0  0  0
 72108  3  0  0  0  0
 73109  3  0  0  0  0
 74110  3  0  0  0  0
 75111  3  0  0  0  0
 76112  3  0  0  0  0
 77113  3  0  0  0  0
  2114  1  0  0  0  0
 78114  3  0  0  0  0
  4115  1  0  0  0  0
  5115  1  0  0  0  0
 79115  2  0  0  0  0
 80116  3  0  0  0  0
 81117  3  0  0  0  0
 82118  3  0  0  0  0
 83119  3  0  0  0  0
 27120  1  0  0  0  0
 84120  3  0  0  0  0
 85121  3  0  0  0  0
 31122  1  0  0  0  0
 86122  3  0  0  0  0
 87123  3  0  0  0  0
 88124  3  0  0  0  0
 89125  3  0  0  0  0
 11126  1  0  0  0  0
 12126  1  0  0  0  0
 90126  2  0  0  0  0
 91127  3  0  0  0  0
M  END
