 xtb: 6.7.1pre (5071a88)
          08312618343D

118101  0     0  0            999 V2000
   -4.1512    2.6651   -0.0775 C   0  0  0  0  0  0  0  0  0  0  0  0
   -4.3300    1.4112   -0.9330 C   0  0  0  0  0  0  0  0  0  0  0  0
   -4.1384    0.0670   -0.1832 C   0  0  0  0  0  0  0  0  0  0  0  0
   -4.7092    0.1920    1.1314 O   0  0  0  0  0  0  0  0  0  0  0  0
   -4.9164   -1.0649   -0.9228 C   0  0  0  0  0  0  0  0  0  0  0  0
   -5.7168   -0.8519   -1.8304 O   0  0  0  0  0  0  0  0  0  0  0  0
   -4.7273   -2.3314   -0.4666 O   0  0  0  0  0  0  0  0  0  0  0  0
   -3.6974   -2.6282    0.5023 C   0  0  0  0  0  0  0  0  0  0  0  0
   -2.5362   -1.7052    0.3756 C   0  0  0  0  0  0  0  0  0  0  0  0
   -2.7090   -0.4171    0.0066 C   0  0  0  0  0  0  0  0  0  0  0  0
   -1.5418    0.4373   -0.1637 C   0  0  0  0  0  0  0  0  0  0  0  0
   -0.3231   -0.0588    0.0775 C   0  0  0  0  0  0  0  0  0  0  0  0
   -0.1519   -1.3663    0.4800 N   0  0  0  0  0  0  0  0  0  0  0  0
   -1.1782   -2.2586    0.6609 C   0  0  0  0  0  0  0  0  0  0  0  0
   -1.0233   -3.4191    1.0251 O   0  0  0  0  0  0  0  0  0  0  0  0
    1.2570   -1.6913    0.6940 C   0  0  0  0  0  0  0  0  0  0  0  0
    1.9453   -0.3971    0.3509 C   0  0  0  0  0  0  0  0  0  0  0  0
    0.9887    0.5704   -0.0148 C   0  0  0  0  0  0  0  0  0  0  0  0
    1.3669    1.8488   -0.3720 C   0  0  0  0  0  0  0  0  0  0  0  0
    2.7284    2.1423   -0.3671 C   0  0  0  0  0  0  0  0  0  0  0  0
    3.1144    3.3810   -0.7163 F   0  0  0  0  0  0  0  0  0  0  0  0
    3.7138    1.1833   -0.0316 C   0  0  0  0  0  0  0  0  0  0  0  0
    3.3092   -0.1055    0.3684 C   0  0  0  0  0  0  0  0  0  0  0  0
    4.3254   -1.1530    0.7374 C   0  0  0  0  0  0  0  0  0  0  0  0
    5.6906   -0.5472    1.0489 C   0  0  0  0  0  0  0  0  0  0  0  0
    6.0446    0.4964    0.0001 C   0  0  0  0  0  0  0  0  0  0  0  0
    5.0664    1.5723    0.0300 N   0  0  0  0  0  0  0  0  0  0  0  0
   -4.1930    3.5562   -0.7125 H   0  0  0  0  0  0  0  0  0  0  0  0
   -3.2012    2.6796    0.4605 H   0  0  0  0  0  0  0  0  0  0  0  0
   -4.9557    2.7527    0.6601 H   0  0  0  0  0  0  0  0  0  0  0  0
   -5.3519    1.4728   -1.3293 H   0  0  0  0  0  0  0  0  0  0  0  0
   -3.6729    1.4541   -1.8103 H   0  0  0  0  0  0  0  0  0  0  0  0
   -5.6412    0.4521    1.0137 H   0  0  0  0  0  0  0  0  0  0  0  0
   -3.4033   -3.6638    0.3054 H   0  0  0  0  0  0  0  0  0  0  0  0
   -4.1355   -2.5905    1.5052 H   0  0  0  0  0  0  0  0  0  0  0  0
   -1.6522    1.4611   -0.4948 H   0  0  0  0  0  0  0  0  0  0  0  0
    1.5448   -2.5062    0.0227 H   0  0  0  0  0  0  0  0  0  0  0  0
    1.4037   -1.9766    1.7402 H   0  0  0  0  0  0  0  0  0  0  0  0
    0.6503    2.6117   -0.6472 H   0  0  0  0  0  0  0  0  0  0  0  0
    3.9859   -1.7239    1.6091 H   0  0  0  0  0  0  0  0  0  0  0  0
    4.4193   -1.8507   -0.1041 H   0  0  0  0  0  0  0  0  0  0  0  0
    6.4508   -1.3353    1.0799 H   0  0  0  0  0  0  0  0  0  0  0  0
    5.6673   -0.0786    2.0415 H   0  0  0  0  0  0  0  0  0  0  0  0
    7.0335    0.9141    0.2167 H   0  0  0  0  0  0  0  0  0  0  0  0
    6.0897    0.0509   -1.0012 H   0  0  0  0  0  0  0  0  0  0  0  0
    5.2613    2.3490   -0.6007 H   0  0  0  0  0  0  0  0  0  0  0  0
    2.1012    0.0000    3.3450 B   0  0  0  0  0  0  0  0  0  0  0  0
   -2.1012    0.0000    3.3450 B   0  0  0  0  0  0  0  0  0  0  0  0
    0.0000    2.1012    3.3450 B   0  0  0  0  0  0  0  0  0  0  0  0
    0.0000   -2.1012    3.3450 B   0  0  0  0  0  0  0  0  0  0  0  0
    3.3450    2.1012    0.0000 B   0  0  0  0  0  0  0  0  0  0  0  0
    3.3450   -2.1012    0.0000 B   0  0  0  0  0  0  0  0  0  0  0  0
    3.3450    0.0000    2.1012 B   0  0  0  0  0  0  0  0  0  0  0  0
    3.3450    0.0000   -2.1012 B   0  0  0  0  0  0  0  0  0  0  0  0
   -3.3450    2.1012    0.0000 B   0  0  0  0  0  0  0  0  0  0  0  0
   -3.3450   -2.1012    0.0000 B   0  0  0  0  0  0  0  0  0  0  0  0
   -3.3450    0.0000    2.1012 B   0  0  0  0  0  0  0  0  0  0  0  0
   -3.3450    0.0000   -2.1012 B   0  0  0  0  0  0  0  0  0  0  0  0
    2.1012    0.0000   -3.3450 B   0  0  0  0  0  0  0  0  0  0  0  0
   -2.1012    0.0000   -3.3450 B   0  0  0  0  0  0  0  0  0  0  0  0
    0.0000    2.1012   -3.3450 B   0  0  0  0  0  0  0  0  0  0  0  0
    0.0000   -2.1012   -3.3450 B   0  0  0  0  0  0  0  0  0  0  0  0
    0.0000    3.3450    2.1012 B   0  0  0  0  0  0  0  0  0  0  0  0
    0.0000    3.3450   -2.1012 B   0  0  0  0  0  0  0  0  0  0  0  0
    0.0000   -3.3450    2.1012 B   0  0  0  0  0  0  0  0  0  0  0  0
    0.0000   -3.3450   -2.1012 B   0  0  0  0  0  0  0  0  0  0  0  0
    2.1012    3.3450    0.0000 B   0  0  0  0  0  0  0  0  0  0  0  0
   -2.1012    3.3450    0.0000 B   0  0  0  0  0  0  0  0  0  0  0  0
    2.1012   -3.3450    0.0000 B   0  0  0  0  0  0  0  0  0  0  0  0
   -2.1012   -3.3450    0.0000 B   0  0  0  0  0  0  0  0  0  0  0  0
    1.4800    1.4800    3.5800 B   0  0  0  0  0  0  0  0  0  0  0  0
   -1.4800    1.4800    3.5800 B   0  0  0  0  0  0  0  0  0  0  0  0
    1.4800   -1.4800    3.5800 B   0  0  0  0  0  0  0  0  0  0  0  0
   -1.4800   -1.4800    3.5800 B   0  0  0  0  0  0  0  0  0  0  0  0
    3.5800    1.4800    1.4800 B   0  0  0  0  0  0  0  0  0  0  0  0
    3.5800   -1.4800    1.4800 B   0  0  0  0  0  0  0  0  0  0  0  0
    3.5800    1.4800   -1.4800 B   0  0  0  0  0  0  0  0  0  0  0  0
    3.5800   -1.4800   -1.4800 B   0  0  0  0  0  0  0  0  0  0  0  0
   -3.5800    1.4800    1.4800 B   0  0  0  0  0  0  0  0  0  0  0  0
   -3.5800   -1.4800    1.4800 B   0  0  0  0  0  0  0  0  0  0  0  0
   -3.5800    1.4800   -1.4800 B   0  0  0  0  0  0  0  0  0  0  0  0
   -3.5800   -1.4800   -1.4800 B   0  0  0  0  0  0  0  0  0  0  0  0
    2.1012    0.0000    3.9200 N   0  0  0  0  0  0  0  0  0  0  0  0
   -2.1012    0.0000    3.9200 N   0  0  0  0  0  0  0  0  0  0  0  0
    0.0000    2.1012    3.9200 N   0  0  0  0  0  0  0  0  0  0  0  0
    0.0000   -2.1012    3.9200 N   0  0  0  0  0  0  0  0  0  0  0  0
    3.9200    2.1012    0.0000 N   0  0  0  0  0  0  0  0  0  0  0  0
    3.9200   -2.1012    0.0000 N   0  0  0  0  0  0  0  0  0  0  0  0
    3.9200    0.0000    2.1012 N   0  0  0  0  0  0  0  0  0  0  0  0
    3.9200    0.0000   -2.1012 N   0  0  0  0  0  0  0  0  0  0  0  0
   -3.9200    2.1012    0.0000 N   0  0  0  0  0  0  0  0  0  0  0  0
   -3.9200   -2.1012    0.0000 N   0  0  0  0  0  0  0  0  0  0  0  0
   -3.9200    0.0000    2.1012 N   0  0  0  0  0  0  0  0  0  0  0  0
   -3.9200    0.0000   -2.1012 N   0  0  0  0  0  0  0  0  0  0  0  0
    2.1012    0.0000   -3.9200 N   0  0  0  0  0  0  0  0  0  0  0  0
   -2.1012    0.0000   -3.9200 N   0  0  0  0  0  0  0  0  0  0  0  0
    0.0000    2.1012   -3.9200 N   0  0  0  0  0  0  0  0  0  0  0  0
    0.0000   -2.1012   -3.9200 N   0  0  0  0  0  0  0  0  0  0  0  0
    0.0000    3.9200    2.1012 N   0  0  0  0  0  0  0  0  0  0  0  0
    0.0000    3.9200   -2.1012 N   0  0  0  0  0  0  0  0  0  0  0  0
    0.0000   -3.9200    2.1012 N   0  0  0  0  0  0  0  0  0  0  0  0
    0.0000   -3.9200   -2.1012 N   0  0  0  0  0  0  0  0  0  0  0  0
    2.1012    3.9200    0.0000 N   0  0  0  0  0  0  0  0  0  0  0  0
   -2.1012    3.9200    0.0000 N   0  0  0  0  0  0  0  0  0  0  0  0
    2.1012   -3.9200    0.0000 N   0  0  0  0  0  0  0  0  0  0  0  0
   -2.1012   -3.9200    0.0000 N   0  0  0  0  0  0  0  0  0  0  0  0
    1.4800    1.4800    4.2200 N   0  0  0  0  0  0  0  0  0  0  0  0
   -1.4800    1.4800    4.2200 N   0  0  0  0  0  0  0  0  0  0  0  0
    1.4800   -1.4800    4.2200 N   0  0  0  0  0  0  0  0  0  0  0  0
   -1.4800   -1.4800    4.2200 N   0  0  0  0  0  0  0  0  0  0  0  0
    4.2200    1.4800    1.4800 N   0  0  0  0  0  0  0  0  0  0  0  0
    4.2200   -1.4800    1.4800 N   0  0  0  0  0  0  0  0  0  0  0  0
    4.2200    1.4800   -1.4800 N   0  0  0  0  0  0  0  0  0  0  0  0
    4.2200   -1.4800   -1.4800 N   0  0  0  0  0  0  0  0  0  0  0  0
   -4.2200    1.4800    1.4800 N   0  0  0  0  0  0  0  0  0  0  0  0
   -4.2200   -1.4800    1.4800 N   0  0  0  0  0  0  0  0  0  0  0  0
   -4.2200    1.4800   -1.4800 N   0  0  0  0  0  0  0  0  0  0  0  0
   -4.2200   -1.4800   -1.4800 N   0  0  0  0  0  0  0  0  0  0  0  0
  2  3  1  0  0  0  0
  3  4  1  0  0  0  0
  3  5  1  0  0  0  0
  5  6  1  0  0  0  0
  5  7  1  0  0  0  0
  3 10  1  0  0  0  0
  9 10  1  0  0  0  0
 10 11  1  0  0  0  0
 11 12  4  0  0  0  0
 12 13  1  0  0  0  0
  9 14  1  0  0  0  0
 13 14  1  0  0  0  0
 14 15  1  0  0  0  0
 13 16  1  0  0  0  0
 16 17  1  0  0  0  0
 12 18  1  0  0  0  0
 17 18  4  0  0  0  0
 18 19  4  0  0  0  0
 19 20  1  0  0  0  0
 20 21  1  0  0  0  0
 17 23  1  0  0  0  0
 22 23  1  0  0  0  0
 23 24  1  0  0  0  0
 24 25  1  0  0  0  0
 25 26  1  0  0  0  0
 22 27  1  0  0  0  0
 26 27  1  0  0  0  0
  1 28  1  0  0  0  0
  1 30  1  0  0  0  0
  4 33  1  0  0  0  0
  8 34  1  0  0  0  0
  8 35  1  0  0  0  0
 11 36  1  0  0  0  0
 16 37  1  0  0  0  0
 16 38  1  0  0  0  0
 19 39  1  0  0  0  0
 25 42  1  0  0  0  0
 25 43  1  0  0  0  0
 26 44  1  0  0  0  0
 26 45  1  0  0  0  0
 27 46  1  0  0  0  0
 20 51  1  0  0  0  0
 22 51  1  0  0  0  0
  1 55  1  0  0  0  0
 29 55  1  0  0  0  0
  8 56  1  0  0  0  0
  9 56  1  0  0  0  0
 48 57  1  0  0  0  0
 20 77  1  0  0  0  0
  9 80  1  0  0  0  0
 32 81  1  0  0  0  0
 47 83  3  0  0  0  0
 48 84  3  0  0  0  0
 49 85  3  0  0  0  0
 50 86  3  0  0  0  0
 20 87  1  0  0  0  0
 22 87  1  0  0  0  0
 27 87  1  0  0  0  0
 51 87  2  0  0  0  0
 24 88  1  0  0  0  0
 41 88  1  0  0  0  0
 52 88  3  0  0  0  0
 53 89  3  0  0  0  0
 54 90  3  0  0  0  0
  1 91  2  0  0  0  0
  2 91  1  0  0  0  0
 55 91  1  0  0  0  0
  7 92  1  0  0  0  0
  8 92  1  0  0  0  0
 56 92  2  0  0  0  0
  4 93  1  0  0  0  0
 57 93  3  0  0  0  0
 58 94  3  0  0  0  0
 59 95  3  0  0  0  0
 60 96  3  0  0  0  0
 61 97  3  0  0  0  0
 62 98  3  0  0  0  0
 63 99  3  0  0  0  0
 64100  3  0  0  0  0
 65101  3  0  0  0  0
 66102  3  0  0  0  0
 67103  3  0  0  0  0
 68104  3  0  0  0  0
 69105  3  0  0  0  0
 70106  3  0  0  0  0
 71107  3  0  0  0  0
 72108  3  0  0  0  0
 73109  3  0  0  0  0
 74110  3  0  0  0  0
 75111  3  0  0  0  0
 24112  4  0  0  0  0
 40112  1  0  0  0  0
 76112  1  0  0  0  0
 77113  3  0  0  0  0
 78114  3  0  0  0  0
 79115  3  0  0  0  0
 80116  3  0  0  0  0
  2117  2  0  0  0  0
 81117  1  0  0  0  0
  5118  1  0  0  0  0
 82118  2  0  0  0  0
M  END
