 xtb: 6.7.1pre (5071a88)
          08312621133D

172213  0     0  0            999 V2000
   -4.1103    3.8378   15.2974 C   0  0  0  0  0  0  0  0  0  0  0  0
   -4.7485    2.5271   15.7833 C   0  0  0  0  0  0  0  0  0  0  0  0
   -6.2600    2.6010   15.5391 C   0  0  0  0  0  0  0  0  0  0  0  0
   -4.4157    2.3428   17.2680 C   0  0  0  0  0  0  0  0  0  0  0  0
   -4.1324    1.4951   14.9710 O   0  0  0  0  0  0  0  0  0  0  0  0
   -4.4757    0.1961   15.1308 C   0  0  0  0  0  0  0  0  0  0  0  0
   -5.2834   -0.2406   15.9328 O   0  0  0  0  0  0  0  0  0  0  0  0
   -3.7668   -0.5443   14.2391 N   0  0  0  0  0  0  0  0  0  0  0  0
   -4.0139   -1.9602   13.9946 C   0  0  0  0  0  0  0  0  0  0  0  0
   -4.9211   -2.1867   12.7912 C   0  0  0  0  0  0  0  0  0  0  0  0
   -5.9165   -3.1773   12.8643 C   0  0  0  0  0  0  0  0  0  0  0  0
   -6.7567   -3.4327   11.7788 C   0  0  0  0  0  0  0  0  0  0  0  0
   -6.6135   -2.7051   10.6010 C   0  0  0  0  0  0  0  0  0  0  0  0
   -5.6313   -1.7224   10.5092 C   0  0  0  0  0  0  0  0  0  0  0  0
   -4.7905   -1.4648   11.5950 C   0  0  0  0  0  0  0  0  0  0  0  0
   -2.7164   -2.8079   13.9342 C   0  0  0  0  0  0  0  0  0  0  0  0
   -2.3324   -3.1483   15.2813 O   0  0  0  0  0  0  0  0  0  0  0  0
   -1.5799   -2.0934   13.1887 C   0  0  0  0  0  0  0  0  0  0  0  0
   -1.7059   -1.3459   12.2268 O   0  0  0  0  0  0  0  0  0  0  0  0
   -0.3927   -2.3372   13.8122 O   0  0  0  0  0  0  0  0  0  0  0  0
    0.6582   -1.3863   13.5738 C   0  0  0  0  0  0  0  0  0  0  0  0
    0.3365   -0.0307   14.2210 C   0  0  0  0  0  0  0  0  0  0  0  0
    0.6132   -0.2314   15.7291 C   0  0  0  0  0  0  0  0  0  0  0  0
   -0.4539   -1.0688   16.2170 O   0  0  0  0  0  0  0  0  0  0  0  0
    1.8498   -1.1069   15.6478 C   0  0  0  0  0  0  0  0  0  0  0  0
    2.9146   -1.0072   16.4599 C   0  0  0  0  0  0  0  0  0  0  0  0
    2.4549   -1.1354   17.8961 C   0  0  0  0  0  0  0  0  0  0  0  0
    1.7677   -2.0719   18.2868 O   0  0  0  0  0  0  0  0  0  0  0  0
    2.8955    0.0384   18.7420 C   0  0  0  0  0  0  0  0  0  0  0  0
    4.0081   -0.2786   19.5688 O   0  0  0  0  0  0  0  0  0  0  0  0
    3.6525   -1.0732   20.6949 C   0  0  0  0  0  0  0  0  0  0  0  0
    3.2832    1.0352   17.6320 C   0  0  0  0  0  0  0  0  0  0  0  0
    4.2484    2.1035   18.2049 C   0  0  0  0  0  0  0  0  0  0  0  0
    2.0909    1.7712   16.8586 C   0  0  0  0  0  0  0  0  0  0  0  0
    2.7726    2.1654   15.5269 C   0  0  0  0  0  0  0  0  0  0  0  0
    3.9428    1.1975   15.3161 C   0  0  0  0  0  0  0  0  0  0  0  0
    3.8568    0.6242   14.0071 O   0  0  0  0  0  0  0  0  0  0  0  0
    5.0310    0.4157   13.3587 C   0  0  0  0  0  0  0  0  0  0  0  0
    6.1480    0.6065   13.8095 O   0  0  0  0  0  0  0  0  0  0  0  0
    4.7760   -0.1201   11.9977 C   0  0  0  0  0  0  0  0  0  0  0  0
    3.5537    0.0731   11.3399 C   0  0  0  0  0  0  0  0  0  0  0  0
    3.3564   -0.4542   10.0622 C   0  0  0  0  0  0  0  0  0  0  0  0
    4.3792   -1.1659    9.4354 C   0  0  0  0  0  0  0  0  0  0  0  0
    5.6025   -1.3486   10.0800 C   0  0  0  0  0  0  0  0  0  0  0  0
    5.8035   -0.8244   11.3580 C   0  0  0  0  0  0  0  0  0  0  0  0
    3.8999    0.1742   16.4875 C   0  0  0  0  0  0  0  0  0  0  0  0
    5.3041   -0.4048   16.7212 C   0  0  0  0  0  0  0  0  0  0  0  0
    0.6526    1.1017   16.6183 C   0  0  0  0  0  0  0  0  0  0  0  0
   -0.2617    2.1890   15.9551 C   0  0  0  0  0  0  0  0  0  0  0  0
   -0.0625    0.8887   17.9895 C   0  0  0  0  0  0  0  0  0  0  0  0
    1.8995   -1.8545   14.3332 C   0  0  0  0  0  0  0  0  0  0  0  0
   -4.5000    4.7057   15.8396 H   0  0  0  0  0  0  0  0  0  0  0  0
   -4.2941    3.9871   14.2270 H   0  0  0  0  0  0  0  0  0  0  0  0
   -3.0218    3.8123   15.4229 H   0  0  0  0  0  0  0  0  0  0  0  0
   -6.6984    3.4827   16.0189 H   0  0  0  0  0  0  0  0  0  0  0  0
   -6.7815    1.7229   15.9315 H   0  0  0  0  0  0  0  0  0  0  0  0
   -6.4788    2.6429   14.4662 H   0  0  0  0  0  0  0  0  0  0  0  0
   -3.3375    2.2138   17.4122 H   0  0  0  0  0  0  0  0  0  0  0  0
   -4.7447    3.2040   17.8595 H   0  0  0  0  0  0  0  0  0  0  0  0
   -4.8965    1.4546   17.6884 H   0  0  0  0  0  0  0  0  0  0  0  0
   -3.2525   -0.0069   13.5541 H   0  0  0  0  0  0  0  0  0  0  0  0
   -4.5762   -2.3143   14.8700 H   0  0  0  0  0  0  0  0  0  0  0  0
   -6.0495   -3.7568   13.7767 H   0  0  0  0  0  0  0  0  0  0  0  0
   -7.5242   -4.1986   11.8554 H   0  0  0  0  0  0  0  0  0  0  0  0
   -7.2676   -2.9023    9.7560 H   0  0  0  0  0  0  0  0  0  0  0  0
   -5.5172   -1.1534    9.5900 H   0  0  0  0  0  0  0  0  0  0  0  0
   -4.0334   -0.6926   11.4859 H   0  0  0  0  0  0  0  0  0  0  0  0
   -2.8942   -3.7612   13.4245 H   0  0  0  0  0  0  0  0  0  0  0  0
   -1.8817   -2.3562   15.6480 H   0  0  0  0  0  0  0  0  0  0  0  0
    0.8495   -1.3173   12.4976 H   0  0  0  0  0  0  0  0  0  0  0  0
   -0.7041    0.2579   14.0456 H   0  0  0  0  0  0  0  0  0  0  0  0
    0.9878    0.7242   13.7756 H   0  0  0  0  0  0  0  0  0  0  0  0
   -0.0667   -1.6540   16.9033 H   0  0  0  0  0  0  0  0  0  0  0  0
    2.0921    0.4465   19.3566 H   0  0  0  0  0  0  0  0  0  0  0  0
    2.8707   -0.5841   21.2838 H   0  0  0  0  0  0  0  0  0  0  0  0
    4.5400   -1.1860   21.3236 H   0  0  0  0  0  0  0  0  0  0  0  0
    3.3275   -2.0690   20.3830 H   0  0  0  0  0  0  0  0  0  0  0  0
    3.7614    2.6493   19.0214 H   0  0  0  0  0  0  0  0  0  0  0  0
    4.5556    2.8447   17.4618 H   0  0  0  0  0  0  0  0  0  0  0  0
    5.1661    1.6629   18.6071 H   0  0  0  0  0  0  0  0  0  0  0  0
    1.8833    2.6999   17.4110 H   0  0  0  0  0  0  0  0  0  0  0  0
    3.1724    3.1834   15.6282 H   0  0  0  0  0  0  0  0  0  0  0  0
    2.1155    2.2101   14.6613 H   0  0  0  0  0  0  0  0  0  0  0  0
    4.8562    1.8045   15.3847 H   0  0  0  0  0  0  0  0  0  0  0  0
    2.7517    0.6383   11.8066 H   0  0  0  0  0  0  0  0  0  0  0  0
    2.4069   -0.3071    9.5525 H   0  0  0  0  0  0  0  0  0  0  0  0
    4.2247   -1.5749    8.4395 H   0  0  0  0  0  0  0  0  0  0  0  0
    6.4006   -1.8986    9.5869 H   0  0  0  0  0  0  0  0  0  0  0  0
    6.7616   -0.9696   11.8537 H   0  0  0  0  0  0  0  0  0  0  0  0
    5.3610   -1.0369   17.6126 H   0  0  0  0  0  0  0  0  0  0  0  0
    6.0555    0.3840   16.8312 H   0  0  0  0  0  0  0  0  0  0  0  0
    5.6092   -1.0331   15.8764 H   0  0  0  0  0  0  0  0  0  0  0  0
   -1.2815    1.8119   15.8148 H   0  0  0  0  0  0  0  0  0  0  0  0
   -0.3301    3.0827   16.5873 H   0  0  0  0  0  0  0  0  0  0  0  0
    0.0916    2.5215   14.9768 H   0  0  0  0  0  0  0  0  0  0  0  0
    0.2285   -0.0263   18.5017 H   0  0  0  0  0  0  0  0  0  0  0  0
    0.1196    1.7315   18.6662 H   0  0  0  0  0  0  0  0  0  0  0  0
   -1.1505    0.8152   17.8652 H   0  0  0  0  0  0  0  0  0  0  0  0
    2.8089   -1.6143   13.7806 H   0  0  0  0  0  0  0  0  0  0  0  0
    1.8738   -2.9351   14.5115 H   0  0  0  0  0  0  0  0  0  0  0  0
    3.4592   -1.4546    1.6280 B   0  0  0  0  0  0  0  0  0  0  0  0
    3.4564    1.1299    0.9400 N   0  0  0  0  0  0  0  0  0  0  0  0
    2.5399    2.3625   -1.2610 B   0  0  0  0  0  0  0  0  0  0  0  0
    2.2931   -0.6416   -2.7306 N   0  0  0  0  0  0  0  0  0  0  0  0
    0.6905   -3.5611    2.7027 B   0  0  0  0  0  0  0  0  0  0  0  0
   -2.9397   -2.6548    1.7095 N   0  0  0  0  0  0  0  0  0  0  0  0
   -1.0382    4.0851    1.8312 B   0  0  0  0  0  0  0  0  0  0  0  0
   -0.6193    0.0177   -3.9419 N   0  0  0  0  0  0  0  0  0  0  0  0
   -0.4737    1.4453   -4.0917 B   0  0  0  0  0  0  0  0  0  0  0  0
    1.2096   -3.7868   -1.7394 N   0  0  0  0  0  0  0  0  0  0  0  0
   -3.8445    2.2094   -0.4937 B   0  0  0  0  0  0  0  0  0  0  0  0
   -2.7729    2.7636   -1.2118 N   0  0  0  0  0  0  0  0  0  0  0  0
    1.4057    0.8181   -4.8893 B   0  0  0  0  0  0  0  0  0  0  0  0
   -0.2358    3.3642    2.8335 N   0  0  0  0  0  0  0  0  0  0  0  0
    0.8983   -2.8798   -2.8138 B   0  0  0  0  0  0  0  0  0  0  0  0
   -0.4918    3.7666   -1.0101 N   0  0  0  0  0  0  0  0  0  0  0  0
   -0.8060    2.1823    3.2819 B   0  0  0  0  0  0  0  0  0  0  0  0
    1.6561   -1.2744    3.5036 N   0  0  0  0  0  0  0  0  0  0  0  0
   -0.2485    3.4699   -2.3799 B   0  0  0  0  0  0  0  0  0  0  0  0
    1.3087    0.0689    3.8170 N   0  0  0  0  0  0  0  0  0  0  0  0
   -1.5974   -0.5599   -3.0847 B   0  0  0  0  0  0  0  0  0  0  0  0
   -3.8325    1.7768    0.8316 N   0  0  0  0  0  0  0  0  0  0  0  0
    0.3376    4.4960    1.1839 B   0  0  0  0  0  0  0  0  0  0  0  0
    0.0433   -0.0140    4.4567 N   0  0  0  0  0  0  0  0  0  0  0  0
   -2.7088    2.2268    1.6012 B   0  0  0  0  0  0  0  0  0  0  0  0
    3.7727   -0.1326   -0.7655 N   0  0  0  0  0  0  0  0  0  0  0  0
   -2.2534   -3.6394    1.0085 B   0  0  0  0  0  0  0  0  0  0  0  0
    1.0558    3.7334    2.2357 N   0  0  0  0  0  0  0  0  0  0  0  0
   -1.8256   -0.7775    3.2198 B   0  0  0  0  0  0  0  0  0  0  0  0
   -2.4368   -3.6019   -0.4508 N   0  0  0  0  0  0  0  0  0  0  0  0
    3.0187   -1.0737   -1.5028 B   0  0  0  0  0  0  0  0  0  0  0  0
   -3.1580   -1.2526   -0.3843 N   0  0  0  0  0  0  0  0  0  0  0  0
    2.0347    2.9223    1.5617 B   0  0  0  0  0  0  0  0  0  0  0  0
   -0.5074   -2.9001   -2.4328 N   0  0  0  0  0  0  0  0  0  0  0  0
   -1.6735   -2.1129   -2.4916 B   0  0  0  0  0  0  0  0  0  0  0  0
    0.5901    3.9646   -0.1102 N   0  0  0  0  0  0  0  0  0  0  0  0
    1.0903    2.9596   -3.1825 B   0  0  0  0  0  0  0  0  0  0  0  0
    0.0774   -4.3592    1.7213 N   0  0  0  0  0  0  0  0  0  0  0  0
   -1.7840    3.4524   -0.4082 B   0  0  0  0  0  0  0  0  0  0  0  0
   -2.0135    3.4185    1.0316 N   0  0  0  0  0  0  0  0  0  0  0  0
    1.4659   -4.2121    1.4991 B   0  0  0  0  0  0  0  0  0  0  0  0
   -0.7980    1.0642    4.1946 N   0  0  0  0  0  0  0  0  0  0  0  0
   -2.6662   -2.4021   -1.1753 B   0  0  0  0  0  0  0  0  0  0  0  0
   -1.0744   -4.4843    0.9912 N   0  0  0  0  0  0  0  0  0  0  0  0
   -2.5037    0.4914   -2.1091 B   0  0  0  0  0  0  0  0  0  0  0  0
    2.3527   -3.8873    0.4531 N   0  0  0  0  0  0  0  0  0  0  0  0
    3.9123   -0.2024    0.7259 B   0  0  0  0  0  0  0  0  0  0  0  0
    1.9285    1.9570   -2.4651 N   0  0  0  0  0  0  0  0  0  0  0  0
    1.0012    2.2544   -4.6225 B   0  0  0  0  0  0  0  0  0  0  0  0
   -4.1860    0.8290   -0.3475 N   0  0  0  0  0  0  0  0  0  0  0  0
   -1.3389    2.4537   -3.1149 B   0  0  0  0  0  0  0  0  0  0  0  0
   -2.3596    1.9326   -2.3058 N   0  0  0  0  0  0  0  0  0  0  0  0
    3.0731   -2.6455    0.6011 B   0  0  0  0  0  0  0  0  0  0  0  0
    2.3352   -3.6737   -0.9709 N   0  0  0  0  0  0  0  0  0  0  0  0
    2.2179    0.5458    2.8084 B   0  0  0  0  0  0  0  0  0  0  0  0
   -2.0264    0.6119    3.6015 N   0  0  0  0  0  0  0  0  0  0  0  0
   -1.1017   -4.1838   -0.4410 B   0  0  0  0  0  0  0  0  0  0  0  0
   -3.2181    0.0417   -0.9586 N   0  0  0  0  0  0  0  0  0  0  0  0
    3.4478    1.2586   -0.5141 B   0  0  0  0  0  0  0  0  0  0  0  0
    2.5821    1.6330    1.9365 N   0  0  0  0  0  0  0  0  0  0  0  0
    1.4721   -1.5550   -3.5156 B   0  0  0  0  0  0  0  0  0  0  0  0
   -2.1026    1.7542    2.7608 N   0  0  0  0  0  0  0  0  0  0  0  0
    2.0408    0.7119   -3.2115 B   0  0  0  0  0  0  0  0  0  0  0  0
   -2.7209   -1.3417    2.3206 N   0  0  0  0  0  0  0  0  0  0  0  0
    0.6586   -0.5389   -4.4869 B   0  0  0  0  0  0  0  0  0  0  0  0
   -0.1687   -3.7594   -1.3565 N   0  0  0  0  0  0  0  0  0  0  0  0
    0.4856   -2.1056    3.4338 B   0  0  0  0  0  0  0  0  0  0  0  0
   -0.5873   -1.2050    3.8245 N   0  0  0  0  0  0  0  0  0  0  0  0
   -3.2244   -1.4514    1.0003 B   0  0  0  0  0  0  0  0  0  0  0  0
    2.6713   -0.8555    2.6211 N   0  0  0  0  0  0  0  0  0  0  0  0
    1.8786    3.3393   -0.1064 B   0  0  0  0  0  0  0  0  0  0  0  0
    2.8769   -2.3318   -0.7936 N   0  0  0  0  0  0  0  0  0  0  0  0
  1  2  1  0  0  0  0
  2  3  1  0  0  0  0
  2  4  1  0  0  0  0
  2  5  1  0  0  0  0
  5  6  1  0  0  0  0
  6  7  2  0  0  0  0
  6  8  1  0  0  0  0
  8  9  1  0  0  0  0
  9 10  1  0  0  0  0
 10 11  4  0  0  0  0
 11 12  4  0  0  0  0
 12 13  4  0  0  0  0
 13 14  4  0  0  0  0
 10 15  4  0  0  0  0
 14 15  4  0  0  0  0
  9 16  1  0  0  0  0
 16 17  1  0  0  0  0
 16 18  1  0  0  0  0
 18 19  2  0  0  0  0
 18 20  1  0  0  0  0
 20 21  1  0  0  0  0
 21 22  1  0  0  0  0
 22 23  1  0  0  0  0
 23 24  1  0  0  0  0
 23 25  1  0  0  0  0
 25 26  2  0  0  0  0
 26 27  1  0  0  0  0
 27 28  2  0  0  0  0
 27 29  1  0  0  0  0
 29 30  1  0  0  0  0
 30 31  1  0  0  0  0
 29 32  1  0  0  0  0
 32 33  1  0  0  0  0
 32 34  1  0  0  0  0
 34 35  1  0  0  0  0
 35 36  1  0  0  0  0
 36 37  1  0  0  0  0
 37 38  1  0  0  0  0
 38 39  2  0  0  0  0
 38 40  1  0  0  0  0
 40 41  4  0  0  0  0
 41 42  4  0  0  0  0
 42 43  4  0  0  0  0
 43 44  4  0  0  0  0
 40 45  4  0  0  0  0
 44 45  4  0  0  0  0
 26 46  1  0  0  0  0
 32 46  1  0  0  0  0
 36 46  1  0  0  0  0
 46 47  1  0  0  0  0
 23 48  1  0  0  0  0
 34 48  1  0  0  0  0
 48 49  1  0  0  0  0
 48 50  1  0  0  0  0
 21 51  1  0  0  0  0
 25 51  1  0  0  0  0
  1 52  1  0  0  0  0
  1 53  1  0  0  0  0
  1 54  1  0  0  0  0
  3 55  1  0  0  0  0
  3 56  1  0  0  0  0
  3 57  1  0  0  0  0
  4 58  1  0  0  0  0
  4 59  1  0  0  0  0
  4 60  1  0  0  0  0
  8 61  1  0  0  0  0
  9 62  1  0  0  0  0
 11 63  1  0  0  0  0
 12 64  1  0  0  0  0
 13 65  1  0  0  0  0
 14 66  1  0  0  0  0
 15 67  1  0  0  0  0
 16 68  1  0  0  0  0
 17 69  1  0  0  0  0
 21 70  1  0  0  0  0
 22 71  1  0  0  0  0
 22 72  1  0  0  0  0
 24 73  1  0  0  0  0
 29 74  1  0  0  0  0
 31 75  1  0  0  0  0
 31 76  1  0  0  0  0
 31 77  1  0  0  0  0
 33 78  1  0  0  0  0
 33 79  1  0  0  0  0
 33 80  1  0  0  0  0
 34 81  1  0  0  0  0
 35 82  1  0  0  0  0
 35 83  1  0  0  0  0
 36 84  1  0  0  0  0
 41 85  1  0  0  0  0
 42 86  1  0  0  0  0
 43 87  1  0  0  0  0
 44 88  1  0  0  0  0
 45 89  1  0  0  0  0
 47 90  1  0  0  0  0
 47 91  1  0  0  0  0
 47 92  1  0  0  0  0
 49 93  1  0  0  0  0
 49 94  1  0  0  0  0
 49 95  1  0  0  0  0
 50 96  1  0  0  0  0
 50 97  1  0  0  0  0
 50 98  1  0  0  0  0
 51 99  1  0  0  0  0
 51100  1  0  0  0  0
108109  1  0  0  0  0
111112  1  0  0  0  0
107114  1  0  0  0  0
110115  1  0  0  0  0
114117  1  0  0  0  0
116119  1  0  0  0  0
118120  1  0  0  0  0
108121  1  0  0  0  0
111122  1  0  0  0  0
107123  1  0  0  0  0
120124  1  0  0  0  0
122125  1  0  0  0  0
106127  1  0  0  0  0
114128  1  0  0  0  0
123128  1  0  0  0  0
127130  1  0  0  0  0
104131  1  0  0  0  0
126131  1  0  0  0  0
128133  1  0  0  0  0
115134  1  0  0  0  0
121135  1  0  0  0  0
134135  1  0  0  0  0
116136  1  0  0  0  0
123136  1  0  0  0  0
119137  1  0  0  0  0
105138  1  0  0  0  0
112139  1  0  0  0  0
116139  1  0  0  0  0
107140  1  0  0  0  0
125140  1  0  0  0  0
139140  1  0  0  0  0
105141  1  0  0  0  0
138141  1  0  0  0  0
117142  1  0  0  0  0
124142  1  0  0  0  0
130143  1  0  0  0  0
132143  1  0  0  0  0
135143  1  0  0  0  0
127144  1  0  0  0  0
138144  1  0  0  0  0
121145  1  0  0  0  0
141146  1  0  0  0  0
101147  1  0  0  0  0
102147  1  0  0  0  0
126147  1  0  0  0  0
103148  1  0  0  0  0
137148  1  0  0  0  0
109149  1  0  0  0  0
113149  1  0  0  0  0
137149  1  0  0  0  0
111150  1  0  0  0  0
122150  1  0  0  0  0
109151  1  0  0  0  0
119151  1  0  0  0  0
112152  1  0  0  0  0
145152  1  0  0  0  0
151152  1  0  0  0  0
101153  1  0  0  0  0
146153  1  0  0  0  0
110154  1  0  0  0  0
146154  1  0  0  0  0
120155  1  0  0  0  0
129156  1  0  0  0  0
142156  1  0  0  0  0
130157  1  0  0  0  0
144157  1  0  0  0  0
132158  1  0  0  0  0
145158  1  0  0  0  0
150158  1  0  0  0  0
102159  1  0  0  0  0
103159  1  0  0  0  0
126159  1  0  0  0  0
102160  1  0  0  0  0
133160  1  0  0  0  0
155160  1  0  0  0  0
104161  1  0  0  0  0
115161  1  0  0  0  0
117162  1  0  0  0  0
125162  1  0  0  0  0
156162  1  0  0  0  0
104163  1  0  0  0  0
113163  1  0  0  0  0
148163  1  0  0  0  0
106164  1  0  0  0  0
129164  1  0  0  0  0
108165  1  0  0  0  0
113165  1  0  0  0  0
161165  1  0  0  0  0
110166  1  0  0  0  0
134166  1  0  0  0  0
157166  1  0  0  0  0
105167  1  0  0  0  0
118167  1  0  0  0  0
124168  1  0  0  0  0
129168  1  0  0  0  0
167168  1  0  0  0  0
106169  1  0  0  0  0
132169  1  0  0  0  0
164169  1  0  0  0  0
101170  1  0  0  0  0
118170  1  0  0  0  0
155170  1  0  0  0  0
103171  1  0  0  0  0
133171  1  0  0  0  0
136171  1  0  0  0  0
131172  1  0  0  0  0
153172  1  0  0  0  0
154172  1  0  0  0  0
M  END
