 xtb: 6.7.1pre (5071a88)
          08312618333D

172171  0     0  0            999 V2000
   -4.1103    3.8378    0.3031 C   0  0  0  0  0  0  0  0  0  0  0  0
   -4.7485    2.5271    0.7889 C   0  0  0  0  0  0  0  0  0  0  0  0
   -6.2600    2.6010    0.5448 C   0  0  0  0  0  0  0  0  0  0  0  0
   -4.4157    2.3428    2.2737 C   0  0  0  0  0  0  0  0  0  0  0  0
   -4.1324    1.4951   -0.0233 O   0  0  0  0  0  0  0  0  0  0  0  0
   -4.4757    0.1961    0.1365 C   0  0  0  0  0  0  0  0  0  0  0  0
   -5.2834   -0.2406    0.9385 O   0  0  0  0  0  0  0  0  0  0  0  0
   -3.7668   -0.5443   -0.7553 N   0  0  0  0  0  0  0  0  0  0  0  0
   -4.0139   -1.9602   -0.9998 C   0  0  0  0  0  0  0  0  0  0  0  0
   -4.9211   -2.1867   -2.2032 C   0  0  0  0  0  0  0  0  0  0  0  0
   -5.9165   -3.1773   -2.1301 C   0  0  0  0  0  0  0  0  0  0  0  0
   -6.7567   -3.4327   -3.2156 C   0  0  0  0  0  0  0  0  0  0  0  0
   -6.6135   -2.7051   -4.3933 C   0  0  0  0  0  0  0  0  0  0  0  0
   -5.6313   -1.7224   -4.4852 C   0  0  0  0  0  0  0  0  0  0  0  0
   -4.7905   -1.4648   -3.3993 C   0  0  0  0  0  0  0  0  0  0  0  0
   -2.7164   -2.8079   -1.0601 C   0  0  0  0  0  0  0  0  0  0  0  0
   -2.3324   -3.1483    0.2869 O   0  0  0  0  0  0  0  0  0  0  0  0
   -1.5799   -2.0934   -1.8056 C   0  0  0  0  0  0  0  0  0  0  0  0
   -1.7059   -1.3459   -2.7675 O   0  0  0  0  0  0  0  0  0  0  0  0
   -0.3927   -2.3372   -1.1821 O   0  0  0  0  0  0  0  0  0  0  0  0
    0.6582   -1.3863   -1.4206 C   0  0  0  0  0  0  0  0  0  0  0  0
    0.3365   -0.0307   -0.7733 C   0  0  0  0  0  0  0  0  0  0  0  0
    0.6132   -0.2314    0.7347 C   0  0  0  0  0  0  0  0  0  0  0  0
   -0.4539   -1.0688    1.2226 O   0  0  0  0  0  0  0  0  0  0  0  0
    1.8498   -1.1069    0.6534 C   0  0  0  0  0  0  0  0  0  0  0  0
    2.9146   -1.0072    1.4655 C   0  0  0  0  0  0  0  0  0  0  0  0
    2.4549   -1.1354    2.9017 C   0  0  0  0  0  0  0  0  0  0  0  0
    1.7677   -2.0719    3.2924 O   0  0  0  0  0  0  0  0  0  0  0  0
    2.8955    0.0384    3.7476 C   0  0  0  0  0  0  0  0  0  0  0  0
    4.0081   -0.2786    4.5744 O   0  0  0  0  0  0  0  0  0  0  0  0
    3.6525   -1.0732    5.7005 C   0  0  0  0  0  0  0  0  0  0  0  0
    3.2832    1.0352    2.6377 C   0  0  0  0  0  0  0  0  0  0  0  0
    4.2484    2.1035    3.2106 C   0  0  0  0  0  0  0  0  0  0  0  0
    2.0909    1.7712    1.8643 C   0  0  0  0  0  0  0  0  0  0  0  0
    2.7726    2.1654    0.5326 C   0  0  0  0  0  0  0  0  0  0  0  0
    3.9428    1.1975    0.3217 C   0  0  0  0  0  0  0  0  0  0  0  0
    3.8568    0.6242   -0.9872 O   0  0  0  0  0  0  0  0  0  0  0  0
    5.0310    0.4157   -1.6357 C   0  0  0  0  0  0  0  0  0  0  0  0
    6.1480    0.6065   -1.1848 O   0  0  0  0  0  0  0  0  0  0  0  0
    4.7760   -0.1201   -2.9966 C   0  0  0  0  0  0  0  0  0  0  0  0
    3.5537    0.0731   -3.6545 C   0  0  0  0  0  0  0  0  0  0  0  0
    3.3564   -0.4542   -4.9322 C   0  0  0  0  0  0  0  0  0  0  0  0
    4.3792   -1.1659   -5.5589 C   0  0  0  0  0  0  0  0  0  0  0  0
    5.6025   -1.3486   -4.9143 C   0  0  0  0  0  0  0  0  0  0  0  0
    5.8035   -0.8244   -3.6363 C   0  0  0  0  0  0  0  0  0  0  0  0
    3.8999    0.1742    1.4932 C   0  0  0  0  0  0  0  0  0  0  0  0
    5.3041   -0.4048    1.7268 C   0  0  0  0  0  0  0  0  0  0  0  0
    0.6526    1.1017    1.6239 C   0  0  0  0  0  0  0  0  0  0  0  0
   -0.2617    2.1890    0.9607 C   0  0  0  0  0  0  0  0  0  0  0  0
   -0.0625    0.8887    2.9952 C   0  0  0  0  0  0  0  0  0  0  0  0
    1.8995   -1.8545   -0.6611 C   0  0  0  0  0  0  0  0  0  0  0  0
   -4.5000    4.7057    0.8453 H   0  0  0  0  0  0  0  0  0  0  0  0
   -4.2941    3.9871   -0.7674 H   0  0  0  0  0  0  0  0  0  0  0  0
   -3.0218    3.8123    0.4285 H   0  0  0  0  0  0  0  0  0  0  0  0
   -6.6984    3.4827    1.0245 H   0  0  0  0  0  0  0  0  0  0  0  0
   -6.7815    1.7229    0.9372 H   0  0  0  0  0  0  0  0  0  0  0  0
   -6.4788    2.6429   -0.5282 H   0  0  0  0  0  0  0  0  0  0  0  0
   -3.3375    2.2138    2.4179 H   0  0  0  0  0  0  0  0  0  0  0  0
   -4.7447    3.2040    2.8652 H   0  0  0  0  0  0  0  0  0  0  0  0
   -4.8965    1.4546    2.6941 H   0  0  0  0  0  0  0  0  0  0  0  0
   -3.2525   -0.0069   -1.4402 H   0  0  0  0  0  0  0  0  0  0  0  0
   -4.5762   -2.3143   -0.1243 H   0  0  0  0  0  0  0  0  0  0  0  0
   -6.0495   -3.7568   -1.2176 H   0  0  0  0  0  0  0  0  0  0  0  0
   -7.5242   -4.1986   -3.1390 H   0  0  0  0  0  0  0  0  0  0  0  0
   -7.2676   -2.9023   -5.2384 H   0  0  0  0  0  0  0  0  0  0  0  0
   -5.5172   -1.1534   -5.4044 H   0  0  0  0  0  0  0  0  0  0  0  0
   -4.0334   -0.6926   -3.5084 H   0  0  0  0  0  0  0  0  0  0  0  0
   -2.8942   -3.7612   -1.5699 H   0  0  0  0  0  0  0  0  0  0  0  0
   -1.8817   -2.3562    0.6537 H   0  0  0  0  0  0  0  0  0  0  0  0
    0.8495   -1.3173   -2.4968 H   0  0  0  0  0  0  0  0  0  0  0  0
   -0.7041    0.2579   -0.9487 H   0  0  0  0  0  0  0  0  0  0  0  0
    0.9878    0.7242   -1.2188 H   0  0  0  0  0  0  0  0  0  0  0  0
   -0.0667   -1.6540    1.9090 H   0  0  0  0  0  0  0  0  0  0  0  0
    2.0921    0.4465    4.3623 H   0  0  0  0  0  0  0  0  0  0  0  0
    2.8707   -0.5841    6.2894 H   0  0  0  0  0  0  0  0  0  0  0  0
    4.5400   -1.1860    6.3293 H   0  0  0  0  0  0  0  0  0  0  0  0
    3.3275   -2.0690    5.3886 H   0  0  0  0  0  0  0  0  0  0  0  0
    3.7614    2.6493    4.0270 H   0  0  0  0  0  0  0  0  0  0  0  0
    4.5556    2.8447    2.4674 H   0  0  0  0  0  0  0  0  0  0  0  0
    5.1661    1.6629    3.6128 H   0  0  0  0  0  0  0  0  0  0  0  0
    1.8833    2.6999    2.4166 H   0  0  0  0  0  0  0  0  0  0  0  0
    3.1724    3.1834    0.6339 H   0  0  0  0  0  0  0  0  0  0  0  0
    2.1155    2.2101   -0.3331 H   0  0  0  0  0  0  0  0  0  0  0  0
    4.8562    1.8045    0.3904 H   0  0  0  0  0  0  0  0  0  0  0  0
    2.7517    0.6383   -3.1878 H   0  0  0  0  0  0  0  0  0  0  0  0
    2.4069   -0.3071   -5.4419 H   0  0  0  0  0  0  0  0  0  0  0  0
    4.2247   -1.5749   -6.5549 H   0  0  0  0  0  0  0  0  0  0  0  0
    6.4006   -1.8986   -5.4074 H   0  0  0  0  0  0  0  0  0  0  0  0
    6.7616   -0.9696   -3.1407 H   0  0  0  0  0  0  0  0  0  0  0  0
    5.3610   -1.0369    2.6182 H   0  0  0  0  0  0  0  0  0  0  0  0
    6.0555    0.3840    1.8369 H   0  0  0  0  0  0  0  0  0  0  0  0
    5.6092   -1.0331    0.8821 H   0  0  0  0  0  0  0  0  0  0  0  0
   -1.2815    1.8119    0.8204 H   0  0  0  0  0  0  0  0  0  0  0  0
   -0.3301    3.0827    1.5930 H   0  0  0  0  0  0  0  0  0  0  0  0
    0.0916    2.5215   -0.0175 H   0  0  0  0  0  0  0  0  0  0  0  0
    0.2285   -0.0263    3.5074 H   0  0  0  0  0  0  0  0  0  0  0  0
    0.1196    1.7315    3.6719 H   0  0  0  0  0  0  0  0  0  0  0  0
   -1.1505    0.8152    2.8708 H   0  0  0  0  0  0  0  0  0  0  0  0
    2.8089   -1.6143   -1.2137 H   0  0  0  0  0  0  0  0  0  0  0  0
    1.8738   -2.9351   -0.4829 H   0  0  0  0  0  0  0  0  0  0  0  0
    2.1012    0.0000    3.3450 B   0  0  0  0  0  0  0  0  0  0  0  0
   -2.1012    0.0000    3.3450 B   0  0  0  0  0  0  0  0  0  0  0  0
    0.0000    2.1012    3.3450 B   0  0  0  0  0  0  0  0  0  0  0  0
    0.0000   -2.1012    3.3450 B   0  0  0  0  0  0  0  0  0  0  0  0
    3.3450    2.1012    0.0000 B   0  0  0  0  0  0  0  0  0  0  0  0
    3.3450   -2.1012    0.0000 B   0  0  0  0  0  0  0  0  0  0  0  0
    3.3450    0.0000    2.1012 B   0  0  0  0  0  0  0  0  0  0  0  0
    3.3450    0.0000   -2.1012 B   0  0  0  0  0  0  0  0  0  0  0  0
   -3.3450    2.1012    0.0000 B   0  0  0  0  0  0  0  0  0  0  0  0
   -3.3450   -2.1012    0.0000 B   0  0  0  0  0  0  0  0  0  0  0  0
   -3.3450    0.0000    2.1012 B   0  0  0  0  0  0  0  0  0  0  0  0
   -3.3450    0.0000   -2.1012 B   0  0  0  0  0  0  0  0  0  0  0  0
    2.1012    0.0000   -3.3450 B   0  0  0  0  0  0  0  0  0  0  0  0
   -2.1012    0.0000   -3.3450 B   0  0  0  0  0  0  0  0  0  0  0  0
    0.0000    2.1012   -3.3450 B   0  0  0  0  0  0  0  0  0  0  0  0
    0.0000   -2.1012   -3.3450 B   0  0  0  0  0  0  0  0  0  0  0  0
    0.0000    3.3450    2.1012 B   0  0  0  0  0  0  0  0  0  0  0  0
    0.0000    3.3450   -2.1012 B   0  0  0  0  0  0  0  0  0  0  0  0
    0.0000   -3.3450    2.1012 B   0  0  0  0  0  0  0  0  0  0  0  0
    0.0000   -3.3450   -2.1012 B   0  0  0  0  0  0  0  0  0  0  0  0
    2.1012    3.3450    0.0000 B   0  0  0  0  0  0  0  0  0  0  0  0
   -2.1012    3.3450    0.0000 B   0  0  0  0  0  0  0  0  0  0  0  0
    2.1012   -3.3450    0.0000 B   0  0  0  0  0  0  0  0  0  0  0  0
   -2.1012   -3.3450    0.0000 B   0  0  0  0  0  0  0  0  0  0  0  0
    1.4800    1.4800    3.5800 B   0  0  0  0  0  0  0  0  0  0  0  0
   -1.4800    1.4800    3.5800 B   0  0  0  0  0  0  0  0  0  0  0  0
    1.4800   -1.4800    3.5800 B   0  0  0  0  0  0  0  0  0  0  0  0
   -1.4800   -1.4800    3.5800 B   0  0  0  0  0  0  0  0  0  0  0  0
    3.5800    1.4800    1.4800 B   0  0  0  0  0  0  0  0  0  0  0  0
    3.5800   -1.4800    1.4800 B   0  0  0  0  0  0  0  0  0  0  0  0
    3.5800    1.4800   -1.4800 B   0  0  0  0  0  0  0  0  0  0  0  0
    3.5800   -1.4800   -1.4800 B   0  0  0  0  0  0  0  0  0  0  0  0
   -3.5800    1.4800    1.4800 B   0  0  0  0  0  0  0  0  0  0  0  0
   -3.5800   -1.4800    1.4800 B   0  0  0  0  0  0  0  0  0  0  0  0
   -3.5800    1.4800   -1.4800 B   0  0  0  0  0  0  0  0  0  0  0  0
   -3.5800   -1.4800   -1.4800 B   0  0  0  0  0  0  0  0  0  0  0  0
    2.1012    0.0000    3.9200 N   0  0  0  0  0  0  0  0  0  0  0  0
   -2.1012    0.0000    3.9200 N   0  0  0  0  0  0  0  0  0  0  0  0
    0.0000    2.1012    3.9200 N   0  0  0  0  0  0  0  0  0  0  0  0
    0.0000   -2.1012    3.9200 N   0  0  0  0  0  0  0  0  0  0  0  0
    3.9200    2.1012    0.0000 N   0  0  0  0  0  0  0  0  0  0  0  0
    3.9200   -2.1012    0.0000 N   0  0  0  0  0  0  0  0  0  0  0  0
    3.9200    0.0000    2.1012 N   0  0  0  0  0  0  0  0  0  0  0  0
    3.9200    0.0000   -2.1012 N   0  0  0  0  0  0  0  0  0  0  0  0
   -3.9200    2.1012    0.0000 N   0  0  0  0  0  0  0  0  0  0  0  0
   -3.9200   -2.1012    0.0000 N   0  0  0  0  0  0  0  0  0  0  0  0
   -3.9200    0.0000    2.1012 N   0  0  0  0  0  0  0  0  0  0  0  0
   -3.9200    0.0000   -2.1012 N   0  0  0  0  0  0  0  0  0  0  0  0
    2.1012    0.0000   -3.9200 N   0  0  0  0  0  0  0  0  0  0  0  0
   -2.1012    0.0000   -3.9200 N   0  0  0  0  0  0  0  0  0  0  0  0
    0.0000    2.1012   -3.9200 N   0  0  0  0  0  0  0  0  0  0  0  0
    0.0000   -2.1012   -3.9200 N   0  0  0  0  0  0  0  0  0  0  0  0
    0.0000    3.9200    2.1012 N   0  0  0  0  0  0  0  0  0  0  0  0
    0.0000    3.9200   -2.1012 N   0  0  0  0  0  0  0  0  0  0  0  0
    0.0000   -3.9200    2.1012 N   0  0  0  0  0  0  0  0  0  0  0  0
    0.0000   -3.9200   -2.1012 N   0  0  0  0  0  0  0  0  0  0  0  0
    2.1012    3.9200    0.0000 N   0  0  0  0  0  0  0  0  0  0  0  0
   -2.1012    3.9200    0.0000 N   0  0  0  0  0  0  0  0  0  0  0  0
    2.1012   -3.9200    0.0000 N   0  0  0  0  0  0  0  0  0  0  0  0
   -2.1012   -3.9200    0.0000 N   0  0  0  0  0  0  0  0  0  0  0  0
    1.4800    1.4800    4.2200 N   0  0  0  0  0  0  0  0  0  0  0  0
   -1.4800    1.4800    4.2200 N   0  0  0  0  0  0  0  0  0  0  0  0
    1.4800   -1.4800    4.2200 N   0  0  0  0  0  0  0  0  0  0  0  0
   -1.4800   -1.4800    4.2200 N   0  0  0  0  0  0  0  0  0  0  0  0
    4.2200    1.4800    1.4800 N   0  0  0  0  0  0  0  0  0  0  0  0
    4.2200   -1.4800    1.4800 N   0  0  0  0  0  0  0  0  0  0  0  0
    4.2200    1.4800   -1.4800 N   0  0  0  0  0  0  0  0  0  0  0  0
    4.2200   -1.4800   -1.4800 N   0  0  0  0  0  0  0  0  0  0  0  0
   -4.2200    1.4800    1.4800 N   0  0  0  0  0  0  0  0  0  0  0  0
   -4.2200   -1.4800    1.4800 N   0  0  0  0  0  0  0  0  0  0  0  0
   -4.2200    1.4800   -1.4800 N   0  0  0  0  0  0  0  0  0  0  0  0
   -4.2200   -1.4800   -1.4800 N   0  0  0  0  0  0  0  0  0  0  0  0
  1  2  1  0  0  0  0
  2  3  1  0  0  0  0
  2  4  1  0  0  0  0
  5  6  1  0  0  0  0
  6  7  1  0  0  0  0
  6  8  1  0  0  0  0
 10 11  1  0  0  0  0
 11 12  4  0  0  0  0
 12 13  4  0  0  0  0
 13 14  4  0  0  0  0
 10 15  1  0  0  0  0
 14 15  4  0  0  0  0
 16 18  1  0  0  0  0
 18 19  1  0  0  0  0
 18 20  1  0  0  0  0
 20 21  1  0  0  0  0
 21 22  1  0  0  0  0
 22 23  1  0  0  0  0
 23 24  1  0  0  0  0
 23 25  1  0  0  0  0
 25 26  1  0  0  0  0
 26 27  1  0  0  0  0
 27 28  1  0  0  0  0
 27 29  1  0  0  0  0
 29 30  1  0  0  0  0
 30 31  1  0  0  0  0
 29 32  1  0  0  0  0
 32 33  1  0  0  0  0
 32 34  1  0  0  0  0
 34 35  1  0  0  0  0
 36 37  1  0  0  0  0
 37 38  1  0  0  0  0
 38 39  4  0  0  0  0
 38 40  1  0  0  0  0
 40 41  1  0  0  0  0
 41 42  1  0  0  0  0
 42 43  4  0  0  0  0
 43 44  4  0  0  0  0
 40 45  1  0  0  0  0
 44 45  4  0  0  0  0
 36 46  1  0  0  0  0
 23 48  1  0  0  0  0
 34 48  1  0  0  0  0
 48 49  1  0  0  0  0
 48 50  1  0  0  0  0
 21 51  1  0  0  0  0
 25 51  1  0  0  0  0
  1 52  1  0  0  0  0
  1 53  1  0  0  0  0
  1 54  1  0  0  0  0
  3 55  1  0  0  0  0
  3 56  1  0  0  0  0
  3 57  1  0  0  0  0
  4 58  1  0  0  0  0
  4 59  1  0  0  0  0
  4 60  1  0  0  0  0
 11 63  1  0  0  0  0
 12 64  1  0  0  0  0
 13 65  1  0  0  0  0
 14 66  1  0  0  0  0
 15 67  1  0  0  0  0
 16 68  1  0  0  0  0
 21 70  1  0  0  0  0
 22 71  1  0  0  0  0
 22 72  1  0  0  0  0
 24 73  1  0  0  0  0
 31 75  1  0  0  0  0
 31 76  1  0  0  0  0
 31 77  1  0  0  0  0
 33 78  1  0  0  0  0
 33 79  1  0  0  0  0
 33 80  1  0  0  0  0
 34 81  1  0  0  0  0
 35 82  1  0  0  0  0
 35 83  1  0  0  0  0
 41 85  1  0  0  0  0
 42 86  1  0  0  0  0
 43 87  1  0  0  0  0
 44 88  1  0  0  0  0
 45 89  1  0  0  0  0
 47 90  1  0  0  0  0
 47 91  1  0  0  0  0
 47 92  1  0  0  0  0
 49 93  1  0  0  0  0
 49 94  1  0  0  0  0
 49 95  1  0  0  0  0
 50 96  1  0  0  0  0
 50 98  1  0  0  0  0
 51 99  1  0  0  0  0
 51100  1  0  0  0  0
 27101  1  0  0  0  0
 29101  1  0  0  0  0
 50103  1  0  0  0  0
 35105  1  0  0  0  0
 26107  1  0  0  0  0
 32107  1  0  0  0  0
 46107  1  0  0  0  0
 20120  1  0  0  0  0
109122  1  0  0  0  0
 17124  2  0  0  0  0
 28127  1  0  0  0  0
 32129  1  0  0  0  0
 34129  1  0  0  0  0
 26130  1  0  0  0  0
 37131  1  0  0  0  0
 99132  1  0  0  0  0
109135  1  0  0  0  0
  8136  1  0  0  0  0
  9136  1  0  0  0  0
 29137  4  0  0  0  0
 74137  1  0  0  0  0
101137  2  0  0  0  0
102138  3  0  0  0  0
 97139  1  0  0  0  0
103139  3  0  0  0  0
104140  3  0  0  0  0
 35141  1  0  0  0  0
 36141  1  0  0  0  0
105141  2  0  0  0  0
106142  3  0  0  0  0
 32143  1  0  0  0  0
 46143  2  0  0  0  0
107143  1  0  0  0  0
 38144  1  0  0  0  0
 40144  1  0  0  0  0
108144  2  0  0  0  0
  2145  1  0  0  0  0
  5145  2  0  0  0  0
109145  1  0  0  0  0
  9146  1  0  0  0  0
 62146  1  0  0  0  0
110146  2  0  0  0  0
111147  3  0  0  0  0
112148  3  0  0  0  0
 41149  1  0  0  0  0
113149  3  0  0  0  0
114150  3  0  0  0  0
115151  3  0  0  0  0
116152  3  0  0  0  0
117153  3  0  0  0  0
118154  3  0  0  0  0
119155  3  0  0  0  0
120156  3  0  0  0  0
121157  3  0  0  0  0
122158  3  0  0  0  0
123159  3  0  0  0  0
 17160  1  0  0  0  0
 69160  1  0  0  0  0
124160  2  0  0  0  0
125161  3  0  0  0  0
126162  3  0  0  0  0
 28163  1  0  0  0  0
127163  2  0  0  0  0
128164  3  0  0  0  0
 36165  1  0  0  0  0
129165  2  0  0  0  0
 26166  1  0  0  0  0
 47166  1  0  0  0  0
130166  2  0  0  0  0
 37167  1  0  0  0  0
 38167  1  0  0  0  0
131167  2  0  0  0  0
132168  3  0  0  0  0
  2169  1  0  0  0  0
  4169  1  0  0  0  0
133169  2  0  0  0  0
134170  3  0  0  0  0
135171  3  0  0  0  0
  9172  2  0  0  0  0
 10172  1  0  0  0  0
136172  1  0  0  0  0
M  END
