 xtb: 6.7.1pre (5071a88)
          08312622213D

 83117  0     0  0            999 V2000
    0.0085   -0.0736    8.0364 N   0  0  0  0  0  0  0  0  0  0  0  0
    0.0002   -0.0494    8.0081 N   0  0  0  0  0  0  0  0  0  0  0  0
   -1.6883   -0.7951    7.7542 Cl  0  0  0  0  0  0  0  0  0  0  0  0
   -0.0152    0.8806    7.7542 Pt  0  0  0  0  0  0  0  0  0  0  0  0
    1.7035    0.4283    7.7542 Cl  0  0  0  0  0  0  0  0  0  0  0  0
   -0.0602    0.9044    7.6623 H   0  0  0  0  0  0  0  0  0  0  0  0
    0.8865   -0.5145    7.6567 H   0  0  0  0  0  0  0  0  0  0  0  0
   -0.8349   -0.5732    7.6616 H   0  0  0  0  0  0  0  0  0  0  0  0
    0.9727   -0.2296    7.6700 H   0  0  0  0  0  0  0  0  0  0  0  0
   -0.5968   -0.8455    7.6723 H   0  0  0  0  0  0  0  0  0  0  0  0
   -0.3761    0.8676    7.6666 H   0  0  0  0  0  0  0  0  0  0  0  0
    3.4592   -1.4546    1.6280 B   0  0  0  0  0  0  0  0  0  0  0  0
    3.4564    1.1299    0.9400 N   0  0  0  0  0  0  0  0  0  0  0  0
    2.5399    2.3625   -1.2610 B   0  0  0  0  0  0  0  0  0  0  0  0
    2.2931   -0.6416   -2.7306 N   0  0  0  0  0  0  0  0  0  0  0  0
    0.6905   -3.5611    2.7027 B   0  0  0  0  0  0  0  0  0  0  0  0
   -2.9397   -2.6548    1.7095 N   0  0  0  0  0  0  0  0  0  0  0  0
   -1.0382    4.0851    1.8312 B   0  0  0  0  0  0  0  0  0  0  0  0
   -0.6193    0.0177   -3.9419 N   0  0  0  0  0  0  0  0  0  0  0  0
   -0.4737    1.4453   -4.0917 B   0  0  0  0  0  0  0  0  0  0  0  0
    1.2096   -3.7868   -1.7394 N   0  0  0  0  0  0  0  0  0  0  0  0
   -3.8445    2.2094   -0.4937 B   0  0  0  0  0  0  0  0  0  0  0  0
   -2.7729    2.7636   -1.2118 N   0  0  0  0  0  0  0  0  0  0  0  0
    1.4057    0.8181   -4.8893 B   0  0  0  0  0  0  0  0  0  0  0  0
   -0.2358    3.3642    2.8335 N   0  0  0  0  0  0  0  0  0  0  0  0
    0.8983   -2.8798   -2.8138 B   0  0  0  0  0  0  0  0  0  0  0  0
   -0.4918    3.7666   -1.0101 N   0  0  0  0  0  0  0  0  0  0  0  0
   -0.8060    2.1823    3.2819 B   0  0  0  0  0  0  0  0  0  0  0  0
    1.6561   -1.2744    3.5036 N   0  0  0  0  0  0  0  0  0  0  0  0
   -0.2485    3.4699   -2.3799 B   0  0  0  0  0  0  0  0  0  0  0  0
    1.3087    0.0689    3.8170 N   0  0  0  0  0  0  0  0  0  0  0  0
   -1.5974   -0.5599   -3.0847 B   0  0  0  0  0  0  0  0  0  0  0  0
   -3.8325    1.7768    0.8316 N   0  0  0  0  0  0  0  0  0  0  0  0
    0.3376    4.4960    1.1839 B   0  0  0  0  0  0  0  0  0  0  0  0
    0.0433   -0.0140    4.4567 N   0  0  0  0  0  0  0  0  0  0  0  0
   -2.7088    2.2268    1.6012 B   0  0  0  0  0  0  0  0  0  0  0  0
    3.7727   -0.1326   -0.7655 N   0  0  0  0  0  0  0  0  0  0  0  0
   -2.2534   -3.6394    1.0085 B   0  0  0  0  0  0  0  0  0  0  0  0
    1.0558    3.7334    2.2357 N   0  0  0  0  0  0  0  0  0  0  0  0
   -1.8256   -0.7775    3.2198 B   0  0  0  0  0  0  0  0  0  0  0  0
   -2.4368   -3.6019   -0.4508 N   0  0  0  0  0  0  0  0  0  0  0  0
    3.0187   -1.0737   -1.5028 B   0  0  0  0  0  0  0  0  0  0  0  0
   -3.1580   -1.2526   -0.3843 N   0  0  0  0  0  0  0  0  0  0  0  0
    2.0347    2.9223    1.5617 B   0  0  0  0  0  0  0  0  0  0  0  0
   -0.5074   -2.9001   -2.4328 N   0  0  0  0  0  0  0  0  0  0  0  0
   -1.6735   -2.1129   -2.4916 B   0  0  0  0  0  0  0  0  0  0  0  0
    0.5901    3.9646   -0.1102 N   0  0  0  0  0  0  0  0  0  0  0  0
    1.0903    2.9596   -3.1825 B   0  0  0  0  0  0  0  0  0  0  0  0
    0.0774   -4.3592    1.7213 N   0  0  0  0  0  0  0  0  0  0  0  0
   -1.7840    3.4524   -0.4082 B   0  0  0  0  0  0  0  0  0  0  0  0
   -2.0135    3.4185    1.0316 N   0  0  0  0  0  0  0  0  0  0  0  0
    1.4659   -4.2121    1.4991 B   0  0  0  0  0  0  0  0  0  0  0  0
   -0.7980    1.0642    4.1946 N   0  0  0  0  0  0  0  0  0  0  0  0
   -2.6662   -2.4021   -1.1753 B   0  0  0  0  0  0  0  0  0  0  0  0
   -1.0744   -4.4843    0.9912 N   0  0  0  0  0  0  0  0  0  0  0  0
   -2.5037    0.4914   -2.1091 B   0  0  0  0  0  0  0  0  0  0  0  0
    2.3527   -3.8873    0.4531 N   0  0  0  0  0  0  0  0  0  0  0  0
    3.9123   -0.2024    0.7259 B   0  0  0  0  0  0  0  0  0  0  0  0
    1.9285    1.9570   -2.4651 N   0  0  0  0  0  0  0  0  0  0  0  0
    1.0012    2.2544   -4.6225 B   0  0  0  0  0  0  0  0  0  0  0  0
   -4.1860    0.8290   -0.3475 N   0  0  0  0  0  0  0  0  0  0  0  0
   -1.3389    2.4537   -3.1149 B   0  0  0  0  0  0  0  0  0  0  0  0
   -2.3596    1.9326   -2.3058 N   0  0  0  0  0  0  0  0  0  0  0  0
    3.0731   -2.6455    0.6011 B   0  0  0  0  0  0  0  0  0  0  0  0
    2.3352   -3.6737   -0.9709 N   0  0  0  0  0  0  0  0  0  0  0  0
    2.2179    0.5458    2.8084 B   0  0  0  0  0  0  0  0  0  0  0  0
   -2.0264    0.6119    3.6015 N   0  0  0  0  0  0  0  0  0  0  0  0
   -1.1017   -4.1838   -0.4410 B   0  0  0  0  0  0  0  0  0  0  0  0
   -3.2181    0.0417   -0.9586 N   0  0  0  0  0  0  0  0  0  0  0  0
    3.4478    1.2586   -0.5141 B   0  0  0  0  0  0  0  0  0  0  0  0
    2.5821    1.6330    1.9365 N   0  0  0  0  0  0  0  0  0  0  0  0
    1.4721   -1.5550   -3.5156 B   0  0  0  0  0  0  0  0  0  0  0  0
   -2.1026    1.7542    2.7608 N   0  0  0  0  0  0  0  0  0  0  0  0
    2.0408    0.7119   -3.2115 B   0  0  0  0  0  0  0  0  0  0  0  0
   -2.7209   -1.3417    2.3206 N   0  0  0  0  0  0  0  0  0  0  0  0
    0.6586   -0.5389   -4.4869 B   0  0  0  0  0  0  0  0  0  0  0  0
   -0.1687   -3.7594   -1.3565 N   0  0  0  0  0  0  0  0  0  0  0  0
    0.4856   -2.1056    3.4338 B   0  0  0  0  0  0  0  0  0  0  0  0
   -0.5873   -1.2050    3.8245 N   0  0  0  0  0  0  0  0  0  0  0  0
   -3.2244   -1.4514    1.0003 B   0  0  0  0  0  0  0  0  0  0  0  0
    2.6713   -0.8555    2.6211 N   0  0  0  0  0  0  0  0  0  0  0  0
    1.8786    3.3393   -0.1064 B   0  0  0  0  0  0  0  0  0  0  0  0
    2.8769   -2.3318   -0.7936 N   0  0  0  0  0  0  0  0  0  0  0  0
  1  2  3  0  0  0  0
  4  5  1  0  0  0  0
  5  7  1  0  0  0  0
  3  8  1  0  0  0  0
  5  9  1  0  0  0  0
  7  9  1  0  0  0  0
  3 10  1  0  0  0  0
  4 11  1  0  0  0  0
  6 11  1  0  0  0  0
 19 20  1  0  0  0  0
 22 23  1  0  0  0  0
 18 25  1  0  0  0  0
 21 26  1  0  0  0  0
 25 28  1  0  0  0  0
 27 30  1  0  0  0  0
 29 31  1  0  0  0  0
 19 32  1  0  0  0  0
 22 33  1  0  0  0  0
 18 34  1  0  0  0  0
 31 35  1  0  0  0  0
 33 36  1  0  0  0  0
 17 38  1  0  0  0  0
 25 39  1  0  0  0  0
 34 39  1  0  0  0  0
 38 41  1  0  0  0  0
 15 42  1  0  0  0  0
 37 42  1  0  0  0  0
 39 44  1  0  0  0  0
 26 45  1  0  0  0  0
 32 46  1  0  0  0  0
 45 46  1  0  0  0  0
 27 47  1  0  0  0  0
 34 47  1  0  0  0  0
 30 48  1  0  0  0  0
 16 49  1  0  0  0  0
 23 50  1  0  0  0  0
 27 50  1  0  0  0  0
 18 51  1  0  0  0  0
 36 51  1  0  0  0  0
 50 51  1  0  0  0  0
 16 52  1  0  0  0  0
 49 52  1  0  0  0  0
 28 53  1  0  0  0  0
 35 53  1  0  0  0  0
 41 54  1  0  0  0  0
 43 54  1  0  0  0  0
 46 54  1  0  0  0  0
 38 55  1  0  0  0  0
 49 55  1  0  0  0  0
 32 56  1  0  0  0  0
 52 57  1  0  0  0  0
 12 58  1  0  0  0  0
 13 58  1  0  0  0  0
 37 58  1  0  0  0  0
 14 59  1  0  0  0  0
 48 59  1  0  0  0  0
 20 60  1  0  0  0  0
 24 60  1  0  0  0  0
 48 60  1  0  0  0  0
 22 61  1  0  0  0  0
 33 61  1  0  0  0  0
 20 62  1  0  0  0  0
 30 62  1  0  0  0  0
 23 63  1  0  0  0  0
 56 63  1  0  0  0  0
 62 63  1  0  0  0  0
 12 64  1  0  0  0  0
 57 64  1  0  0  0  0
 21 65  1  0  0  0  0
 57 65  1  0  0  0  0
 31 66  1  0  0  0  0
 40 67  1  0  0  0  0
 53 67  1  0  0  0  0
 41 68  1  0  0  0  0
 55 68  1  0  0  0  0
 43 69  1  0  0  0  0
 56 69  1  0  0  0  0
 61 69  1  0  0  0  0
 13 70  1  0  0  0  0
 14 70  1  0  0  0  0
 37 70  1  0  0  0  0
 13 71  1  0  0  0  0
 44 71  1  0  0  0  0
 66 71  1  0  0  0  0
 15 72  1  0  0  0  0
 26 72  1  0  0  0  0
 28 73  1  0  0  0  0
 36 73  1  0  0  0  0
 67 73  1  0  0  0  0
 15 74  1  0  0  0  0
 24 74  1  0  0  0  0
 59 74  1  0  0  0  0
 17 75  1  0  0  0  0
 40 75  1  0  0  0  0
 19 76  1  0  0  0  0
 24 76  1  0  0  0  0
 72 76  1  0  0  0  0
 21 77  1  0  0  0  0
 45 77  1  0  0  0  0
 68 77  1  0  0  0  0
 16 78  1  0  0  0  0
 29 78  1  0  0  0  0
 35 79  1  0  0  0  0
 40 79  1  0  0  0  0
 78 79  1  0  0  0  0
 17 80  1  0  0  0  0
 43 80  1  0  0  0  0
 75 80  1  0  0  0  0
 12 81  1  0  0  0  0
 29 81  1  0  0  0  0
 66 81  1  0  0  0  0
 14 82  1  0  0  0  0
 44 82  1  0  0  0  0
 47 82  1  0  0  0  0
 42 83  1  0  0  0  0
 64 83  1  0  0  0  0
 65 83  1  0  0  0  0
M  END
