 xtb: 6.7.1pre (5071a88)
          08312618253D

 97 60  0     0  0            999 V2000
   -0.0127   -0.0035    0.2725 N   0  0  0  0  0  0  0  0  0  0  0  0
   -0.0020    0.0014    0.2472 N   0  0  0  0  0  0  0  0  0  0  0  0
    2.8491   -2.2188   -0.5261 O   0  0  0  0  0  0  0  0  0  0  0  0
    2.0753   -1.3920   -0.0565 C   0  0  0  0  0  0  0  0  0  0  0  0
    0.8174   -1.0425   -0.4570 O   0  0  0  0  0  0  0  0  0  0  0  0
    0.1721    0.1040   -0.0606 C   0  0  0  0  0  0  0  0  0  0  0  0
   -0.8682    0.4728   -1.1271 C   0  0  0  0  0  0  0  0  0  0  0  0
   -1.8813   -0.3641   -0.3380 C   0  0  0  0  0  0  0  0  0  0  0  0
   -0.9951   -0.1071    0.8720 C   0  0  0  0  0  0  0  0  0  0  0  0
    0.9921    1.2585    0.3313 C   0  0  0  0  0  0  0  0  0  0  0  0
    0.5985    2.4424    0.0441 O   0  0  0  0  0  0  0  0  0  0  0  0
    2.1772    1.0203    1.0065 O   0  0  0  0  0  0  0  0  0  0  0  0
    2.7695   -0.3873    1.5660 Pt  0  0  0  0  0  0  0  0  0  0  0  0
   -0.5365   -0.8256   -0.0933 H   0  0  0  0  0  0  0  0  0  0  0  0
   -0.4058    0.9000   -0.0915 H   0  0  0  0  0  0  0  0  0  0  0  0
    0.9550   -0.0709   -0.0877 H   0  0  0  0  0  0  0  0  0  0  0  0
    0.9673   -0.1751   -0.0819 H   0  0  0  0  0  0  0  0  0  0  0  0
   -0.6189   -0.7639   -0.0824 H   0  0  0  0  0  0  0  0  0  0  0  0
   -0.3464    0.9376   -0.0828 H   0  0  0  0  0  0  0  0  0  0  0  0
   -0.6436    0.0719   -2.1307 H   0  0  0  0  0  0  0  0  0  0  0  0
   -1.1112    1.5498   -1.0710 H   0  0  0  0  0  0  0  0  0  0  0  0
   -1.9264   -1.4200   -0.6428 H   0  0  0  0  0  0  0  0  0  0  0  0
   -2.8699    0.1712   -0.2971 H   0  0  0  0  0  0  0  0  0  0  0  0
   -1.3381    0.8254    1.3636 H   0  0  0  0  0  0  0  0  0  0  0  0
   -0.8174   -0.9847    1.5233 H   0  0  0  0  0  0  0  0  0  0  0  0
    2.1012    0.0000    3.3450 B   0  0  0  0  0  0  0  0  0  0  0  0
   -2.1012    0.0000    3.3450 B   0  0  0  0  0  0  0  0  0  0  0  0
    0.0000    2.1012    3.3450 B   0  0  0  0  0  0  0  0  0  0  0  0
    0.0000   -2.1012    3.3450 B   0  0  0  0  0  0  0  0  0  0  0  0
    3.3450    2.1012    0.0000 B   0  0  0  0  0  0  0  0  0  0  0  0
    3.3450   -2.1012    0.0000 B   0  0  0  0  0  0  0  0  0  0  0  0
    3.3450    0.0000    2.1012 B   0  0  0  0  0  0  0  0  0  0  0  0
    3.3450    0.0000   -2.1012 B   0  0  0  0  0  0  0  0  0  0  0  0
   -3.3450    2.1012    0.0000 B   0  0  0  0  0  0  0  0  0  0  0  0
   -3.3450   -2.1012    0.0000 B   0  0  0  0  0  0  0  0  0  0  0  0
   -3.3450    0.0000    2.1012 B   0  0  0  0  0  0  0  0  0  0  0  0
   -3.3450    0.0000   -2.1012 B   0  0  0  0  0  0  0  0  0  0  0  0
    2.1012    0.0000   -3.3450 B   0  0  0  0  0  0  0  0  0  0  0  0
   -2.1012    0.0000   -3.3450 B   0  0  0  0  0  0  0  0  0  0  0  0
    0.0000    2.1012   -3.3450 B   0  0  0  0  0  0  0  0  0  0  0  0
    0.0000   -2.1012   -3.3450 B   0  0  0  0  0  0  0  0  0  0  0  0
    0.0000    3.3450    2.1012 B   0  0  0  0  0  0  0  0  0  0  0  0
    0.0000    3.3450   -2.1012 B   0  0  0  0  0  0  0  0  0  0  0  0
    0.0000   -3.3450    2.1012 B   0  0  0  0  0  0  0  0  0  0  0  0
    0.0000   -3.3450   -2.1012 B   0  0  0  0  0  0  0  0  0  0  0  0
    2.1012    3.3450    0.0000 B   0  0  0  0  0  0  0  0  0  0  0  0
   -2.1012    3.3450    0.0000 B   0  0  0  0  0  0  0  0  0  0  0  0
    2.1012   -3.3450    0.0000 B   0  0  0  0  0  0  0  0  0  0  0  0
   -2.1012   -3.3450    0.0000 B   0  0  0  0  0  0  0  0  0  0  0  0
    1.4800    1.4800    3.5800 B   0  0  0  0  0  0  0  0  0  0  0  0
   -1.4800    1.4800    3.5800 B   0  0  0  0  0  0  0  0  0  0  0  0
    1.4800   -1.4800    3.5800 B   0  0  0  0  0  0  0  0  0  0  0  0
   -1.4800   -1.4800    3.5800 B   0  0  0  0  0  0  0  0  0  0  0  0
    3.5800    1.4800    1.4800 B   0  0  0  0  0  0  0  0  0  0  0  0
    3.5800   -1.4800    1.4800 B   0  0  0  0  0  0  0  0  0  0  0  0
    3.5800    1.4800   -1.4800 B   0  0  0  0  0  0  0  0  0  0  0  0
    3.5800   -1.4800   -1.4800 B   0  0  0  0  0  0  0  0  0  0  0  0
   -3.5800    1.4800    1.4800 B   0  0  0  0  0  0  0  0  0  0  0  0
   -3.5800   -1.4800    1.4800 B   0  0  0  0  0  0  0  0  0  0  0  0
   -3.5800    1.4800   -1.4800 B   0  0  0  0  0  0  0  0  0  0  0  0
   -3.5800   -1.4800   -1.4800 B   0  0  0  0  0  0  0  0  0  0  0  0
    2.1012    0.0000    3.9200 N   0  0  0  0  0  0  0  0  0  0  0  0
   -2.1012    0.0000    3.9200 N   0  0  0  0  0  0  0  0  0  0  0  0
    0.0000    2.1012    3.9200 N   0  0  0  0  0  0  0  0  0  0  0  0
    0.0000   -2.1012    3.9200 N   0  0  0  0  0  0  0  0  0  0  0  0
    3.9200    2.1012    0.0000 N   0  0  0  0  0  0  0  0  0  0  0  0
    3.9200   -2.1012    0.0000 N   0  0  0  0  0  0  0  0  0  0  0  0
    3.9200    0.0000    2.1012 N   0  0  0  0  0  0  0  0  0  0  0  0
    3.9200    0.0000   -2.1012 N   0  0  0  0  0  0  0  0  0  0  0  0
   -3.9200    2.1012    0.0000 N   0  0  0  0  0  0  0  0  0  0  0  0
   -3.9200   -2.1012    0.0000 N   0  0  0  0  0  0  0  0  0  0  0  0
   -3.9200    0.0000    2.1012 N   0  0  0  0  0  0  0  0  0  0  0  0
   -3.9200    0.0000   -2.1012 N   0  0  0  0  0  0  0  0  0  0  0  0
    2.1012    0.0000   -3.9200 N   0  0  0  0  0  0  0  0  0  0  0  0
   -2.1012    0.0000   -3.9200 N   0  0  0  0  0  0  0  0  0  0  0  0
    0.0000    2.1012   -3.9200 N   0  0  0  0  0  0  0  0  0  0  0  0
    0.0000   -2.1012   -3.9200 N   0  0  0  0  0  0  0  0  0  0  0  0
    0.0000    3.9200    2.1012 N   0  0  0  0  0  0  0  0  0  0  0  0
    0.0000    3.9200   -2.1012 N   0  0  0  0  0  0  0  0  0  0  0  0
    0.0000   -3.9200    2.1012 N   0  0  0  0  0  0  0  0  0  0  0  0
    0.0000   -3.9200   -2.1012 N   0  0  0  0  0  0  0  0  0  0  0  0
    2.1012    3.9200    0.0000 N   0  0  0  0  0  0  0  0  0  0  0  0
   -2.1012    3.9200    0.0000 N   0  0  0  0  0  0  0  0  0  0  0  0
    2.1012   -3.9200    0.0000 N   0  0  0  0  0  0  0  0  0  0  0  0
   -2.1012   -3.9200    0.0000 N   0  0  0  0  0  0  0  0  0  0  0  0
    1.4800    1.4800    4.2200 N   0  0  0  0  0  0  0  0  0  0  0  0
   -1.4800    1.4800    4.2200 N   0  0  0  0  0  0  0  0  0  0  0  0
    1.4800   -1.4800    4.2200 N   0  0  0  0  0  0  0  0  0  0  0  0
   -1.4800   -1.4800    4.2200 N   0  0  0  0  0  0  0  0  0  0  0  0
    4.2200    1.4800    1.4800 N   0  0  0  0  0  0  0  0  0  0  0  0
    4.2200   -1.4800    1.4800 N   0  0  0  0  0  0  0  0  0  0  0  0
    4.2200    1.4800   -1.4800 N   0  0  0  0  0  0  0  0  0  0  0  0
    4.2200   -1.4800   -1.4800 N   0  0  0  0  0  0  0  0  0  0  0  0
   -4.2200    1.4800    1.4800 N   0  0  0  0  0  0  0  0  0  0  0  0
   -4.2200   -1.4800    1.4800 N   0  0  0  0  0  0  0  0  0  0  0  0
   -4.2200    1.4800   -1.4800 N   0  0  0  0  0  0  0  0  0  0  0  0
   -4.2200   -1.4800   -1.4800 N   0  0  0  0  0  0  0  0  0  0  0  0
  1  2  3  0  0  0  0
  3  4  1  0  0  0  0
  4  5  1  0  0  0  0
  1  6  1  0  0  0  0
  2  6  1  0  0  0  0
  6  7  1  0  0  0  0
  7  8  1  0  0  0  0
  8  9  1  0  0  0  0
 10 11  1  0  0  0  0
 10 12  1  0  0  0  0
  4 13  1  0  0  0  0
 12 13  1  0  0  0  0
 14 18  1  0  0  0  0
 15 19  1  0  0  0  0
  7 20  1  0  0  0  0
  7 21  1  0  0  0  0
  8 22  1  0  0  0  0
  8 23  1  0  0  0  0
  9 24  1  0  0  0  0
  9 25  1  0  0  0  0
  3 31  1  0  0  0  0
 12 54  1  0  0  0  0
 13 55  1  0  0  0  0
 26 62  3  0  0  0  0
 27 63  3  0  0  0  0
 28 64  3  0  0  0  0
 29 65  3  0  0  0  0
 30 66  3  0  0  0  0
  3 67  1  0  0  0  0
 31 67  3  0  0  0  0
 32 68  3  0  0  0  0
 33 69  3  0  0  0  0
 34 70  3  0  0  0  0
 35 71  3  0  0  0  0
 36 72  3  0  0  0  0
 37 73  3  0  0  0  0
 38 74  3  0  0  0  0
 39 75  3  0  0  0  0
 40 76  3  0  0  0  0
 41 77  3  0  0  0  0
 42 78  3  0  0  0  0
 43 79  3  0  0  0  0
 44 80  3  0  0  0  0
 45 81  3  0  0  0  0
 46 82  3  0  0  0  0
 47 83  3  0  0  0  0
 48 84  3  0  0  0  0
 49 85  3  0  0  0  0
 50 86  3  0  0  0  0
 51 87  3  0  0  0  0
 52 88  3  0  0  0  0
 53 89  3  0  0  0  0
 54 90  3  0  0  0  0
 55 91  3  0  0  0  0
 56 92  3  0  0  0  0
 57 93  3  0  0  0  0
 58 94  3  0  0  0  0
 59 95  3  0  0  0  0
 60 96  3  0  0  0  0
 61 97  3  0  0  0  0
M  END
