 xtb: 6.7.1pre (5071a88)
          08312621133D

169210  0     0  0            999 V2000
    8.8556   -2.9556   14.3799 C   0  0  0  0  0  0  0  0  0  0  0  0
    7.8841   -2.2002   15.2996 C   0  0  0  0  0  0  0  0  0  0  0  0
    8.6822   -1.1879   16.1286 C   0  0  0  0  0  0  0  0  0  0  0  0
    7.1561   -3.2185   16.1842 C   0  0  0  0  0  0  0  0  0  0  0  0
    6.9646   -1.5347   14.3966 O   0  0  0  0  0  0  0  0  0  0  0  0
    5.9615   -0.7667   14.8757 C   0  0  0  0  0  0  0  0  0  0  0  0
    5.7115   -0.5483   16.0502 O   0  0  0  0  0  0  0  0  0  0  0  0
    5.2433   -0.2799   13.8294 N   0  0  0  0  0  0  0  0  0  0  0  0
    3.9665    0.3984   14.0243 C   0  0  0  0  0  0  0  0  0  0  0  0
    3.6295    1.2165   12.7817 C   0  0  0  0  0  0  0  0  0  0  0  0
    3.4546    2.6059   12.8923 C   0  0  0  0  0  0  0  0  0  0  0  0
    3.1573    3.3815   11.7701 C   0  0  0  0  0  0  0  0  0  0  0  0
    3.0323    2.7810   10.5202 C   0  0  0  0  0  0  0  0  0  0  0  0
    3.1984    1.4042   10.3925 C   0  0  0  0  0  0  0  0  0  0  0  0
    3.4949    0.6271   11.5140 C   0  0  0  0  0  0  0  0  0  0  0  0
    2.8492   -0.5898   14.4541 C   0  0  0  0  0  0  0  0  0  0  0  0
    2.6448   -1.6087   13.4593 O   0  0  0  0  0  0  0  0  0  0  0  0
    1.5754    0.1817   14.8195 C   0  0  0  0  0  0  0  0  0  0  0  0
    1.5261    1.2841   15.3471 O   0  0  0  0  0  0  0  0  0  0  0  0
    0.4884   -0.5481   14.4390 O   0  0  0  0  0  0  0  0  0  0  0  0
   -0.7620    0.1565   14.3846 C   0  0  0  0  0  0  0  0  0  0  0  0
   -0.8415    0.9890   13.0996 C   0  0  0  0  0  0  0  0  0  0  0  0
   -1.1944   -0.0263   11.9870 C   0  0  0  0  0  0  0  0  0  0  0  0
    0.0004   -0.8036   11.7701 O   0  0  0  0  0  0  0  0  0  0  0  0
   -2.1523   -0.9274   12.7430 C   0  0  0  0  0  0  0  0  0  0  0  0
   -3.2872   -1.4419   12.2433 C   0  0  0  0  0  0  0  0  0  0  0  0
   -2.9689   -2.2456   11.0031 C   0  0  0  0  0  0  0  0  0  0  0  0
   -2.1764   -3.1791   10.9924 O   0  0  0  0  0  0  0  0  0  0  0  0
   -3.7400   -1.7622    9.8025 C   0  0  0  0  0  0  0  0  0  0  0  0
   -4.7679   -2.6895    9.4941 O   0  0  0  0  0  0  0  0  0  0  0  0
   -4.2665   -0.4188   10.3222 C   0  0  0  0  0  0  0  0  0  0  0  0
   -5.5203   -0.0038    9.5157 C   0  0  0  0  0  0  0  0  0  0  0  0
   -3.2307    0.7979   10.3559 C   0  0  0  0  0  0  0  0  0  0  0  0
   -3.8603    1.7210   11.4251 C   0  0  0  0  0  0  0  0  0  0  0  0
   -4.7154    0.8343   12.3376 C   0  0  0  0  0  0  0  0  0  0  0  0
   -4.3499    1.0621   13.7029 O   0  0  0  0  0  0  0  0  0  0  0  0
   -5.3575    1.0339   14.6122 C   0  0  0  0  0  0  0  0  0  0  0  0
   -6.5254    0.7649   14.3866 O   0  0  0  0  0  0  0  0  0  0  0  0
   -4.8348    1.3501   15.9652 C   0  0  0  0  0  0  0  0  0  0  0  0
   -5.5696    0.9226   17.0779 C   0  0  0  0  0  0  0  0  0  0  0  0
   -5.1085    1.1934   18.3673 C   0  0  0  0  0  0  0  0  0  0  0  0
   -3.9173    1.8961   18.5490 C   0  0  0  0  0  0  0  0  0  0  0  0
   -3.1880    2.3360   17.4445 C   0  0  0  0  0  0  0  0  0  0  0  0
   -3.6468    2.0693   16.1531 C   0  0  0  0  0  0  0  0  0  0  0  0
   -4.5332   -0.6299   11.8440 C   0  0  0  0  0  0  0  0  0  0  0  0
   -5.7666   -1.4627   12.2287 C   0  0  0  0  0  0  0  0  0  0  0  0
   -1.6537    0.6015   10.5857 C   0  0  0  0  0  0  0  0  0  0  0  0
   -0.9854    2.0076   10.4065 C   0  0  0  0  0  0  0  0  0  0  0  0
   -1.0421   -0.1925    9.3892 C   0  0  0  0  0  0  0  0  0  0  0  0
   -1.8850   -0.8675   14.2300 C   0  0  0  0  0  0  0  0  0  0  0  0
    8.3161   -3.6658   13.7423 H   0  0  0  0  0  0  0  0  0  0  0  0
    9.3704   -2.2630   13.7038 H   0  0  0  0  0  0  0  0  0  0  0  0
    9.6104   -3.5073   14.9501 H   0  0  0  0  0  0  0  0  0  0  0  0
    9.1230   -0.4190   15.4841 H   0  0  0  0  0  0  0  0  0  0  0  0
    8.0515   -0.6652   16.8539 H   0  0  0  0  0  0  0  0  0  0  0  0
    9.4871   -1.6772   16.6876 H   0  0  0  0  0  0  0  0  0  0  0  0
    6.5234   -3.8772   15.5787 H   0  0  0  0  0  0  0  0  0  0  0  0
    6.4978   -2.7326   16.9106 H   0  0  0  0  0  0  0  0  0  0  0  0
    7.8646   -3.8361   16.7466 H   0  0  0  0  0  0  0  0  0  0  0  0
    5.4453   -0.7075   12.9379 H   0  0  0  0  0  0  0  0  0  0  0  0
    4.1240    1.0964   14.8583 H   0  0  0  0  0  0  0  0  0  0  0  0
    3.5481    3.0968   13.8598 H   0  0  0  0  0  0  0  0  0  0  0  0
    3.0272    4.4556   11.8735 H   0  0  0  0  0  0  0  0  0  0  0  0
    2.8039    3.3850    9.6464 H   0  0  0  0  0  0  0  0  0  0  0  0
    3.0971    0.9322    9.4187 H   0  0  0  0  0  0  0  0  0  0  0  0
    3.6219   -0.4457   11.3844 H   0  0  0  0  0  0  0  0  0  0  0  0
    3.1514   -1.1204   15.3640 H   0  0  0  0  0  0  0  0  0  0  0  0
    1.8319   -1.3534   12.9713 H   0  0  0  0  0  0  0  0  0  0  0  0
   -0.8947    0.7534   15.2932 H   0  0  0  0  0  0  0  0  0  0  0  0
   -1.6147    1.7486   13.2296 H   0  0  0  0  0  0  0  0  0  0  0  0
    0.1131    1.4858   12.8973 H   0  0  0  0  0  0  0  0  0  0  0  0
   -0.2804   -1.7185   11.5637 H   0  0  0  0  0  0  0  0  0  0  0  0
   -3.1205   -1.6429    8.9150 H   0  0  0  0  0  0  0  0  0  0  0  0
   -4.3298   -3.5452    9.3218 H   0  0  0  0  0  0  0  0  0  0  0  0
   -6.3187   -0.7501    9.5775 H   0  0  0  0  0  0  0  0  0  0  0  0
   -5.9486    0.9450    9.8508 H   0  0  0  0  0  0  0  0  0  0  0  0
   -5.2638    0.1139    8.4565 H   0  0  0  0  0  0  0  0  0  0  0  0
   -3.3151    1.3103    9.3859 H   0  0  0  0  0  0  0  0  0  0  0  0
   -4.5178    2.4406   10.9188 H   0  0  0  0  0  0  0  0  0  0  0  0
   -3.1579    2.3333   11.9864 H   0  0  0  0  0  0  0  0  0  0  0  0
   -5.7555    1.1539   12.1843 H   0  0  0  0  0  0  0  0  0  0  0  0
   -6.5007    0.3749   16.9444 H   0  0  0  0  0  0  0  0  0  0  0  0
   -5.6786    0.8570   19.2301 H   0  0  0  0  0  0  0  0  0  0  0  0
   -3.5590    2.1058   19.5543 H   0  0  0  0  0  0  0  0  0  0  0  0
   -2.2632    2.8899   17.5905 H   0  0  0  0  0  0  0  0  0  0  0  0
   -3.0739    2.4336   15.3049 H   0  0  0  0  0  0  0  0  0  0  0  0
   -5.8190   -1.5985   13.3150 H   0  0  0  0  0  0  0  0  0  0  0  0
   -6.6973   -0.9794   11.9133 H   0  0  0  0  0  0  0  0  0  0  0  0
   -5.7559   -2.4656   11.7908 H   0  0  0  0  0  0  0  0  0  0  0  0
   -1.3126    2.7457   11.1416 H   0  0  0  0  0  0  0  0  0  0  0  0
   -1.2093    2.4248    9.4171 H   0  0  0  0  0  0  0  0  0  0  0  0
    0.1042    1.9370   10.4893 H   0  0  0  0  0  0  0  0  0  0  0  0
   -1.5002    0.1064    8.4395 H   0  0  0  0  0  0  0  0  0  0  0  0
    0.0346   -0.0021    9.2918 H   0  0  0  0  0  0  0  0  0  0  0  0
   -1.1336   -1.2731    9.4873 H   0  0  0  0  0  0  0  0  0  0  0  0
   -2.7771   -0.5551   14.7756 H   0  0  0  0  0  0  0  0  0  0  0  0
   -1.5783   -1.8525   14.5985 H   0  0  0  0  0  0  0  0  0  0  0  0
    3.4592   -1.4546    1.6280 B   0  0  0  0  0  0  0  0  0  0  0  0
    3.4564    1.1299    0.9400 N   0  0  0  0  0  0  0  0  0  0  0  0
    2.5399    2.3625   -1.2610 B   0  0  0  0  0  0  0  0  0  0  0  0
    2.2931   -0.6416   -2.7306 N   0  0  0  0  0  0  0  0  0  0  0  0
    0.6905   -3.5611    2.7027 B   0  0  0  0  0  0  0  0  0  0  0  0
   -2.9397   -2.6548    1.7095 N   0  0  0  0  0  0  0  0  0  0  0  0
   -1.0382    4.0851    1.8312 B   0  0  0  0  0  0  0  0  0  0  0  0
   -0.6193    0.0177   -3.9419 N   0  0  0  0  0  0  0  0  0  0  0  0
   -0.4737    1.4453   -4.0917 B   0  0  0  0  0  0  0  0  0  0  0  0
    1.2096   -3.7868   -1.7394 N   0  0  0  0  0  0  0  0  0  0  0  0
   -3.8445    2.2094   -0.4937 B   0  0  0  0  0  0  0  0  0  0  0  0
   -2.7729    2.7636   -1.2118 N   0  0  0  0  0  0  0  0  0  0  0  0
    1.4057    0.8181   -4.8893 B   0  0  0  0  0  0  0  0  0  0  0  0
   -0.2358    3.3642    2.8335 N   0  0  0  0  0  0  0  0  0  0  0  0
    0.8983   -2.8798   -2.8138 B   0  0  0  0  0  0  0  0  0  0  0  0
   -0.4918    3.7666   -1.0101 N   0  0  0  0  0  0  0  0  0  0  0  0
   -0.8060    2.1823    3.2819 B   0  0  0  0  0  0  0  0  0  0  0  0
    1.6561   -1.2744    3.5036 N   0  0  0  0  0  0  0  0  0  0  0  0
   -0.2485    3.4699   -2.3799 B   0  0  0  0  0  0  0  0  0  0  0  0
    1.3087    0.0689    3.8170 N   0  0  0  0  0  0  0  0  0  0  0  0
   -1.5974   -0.5599   -3.0847 B   0  0  0  0  0  0  0  0  0  0  0  0
   -3.8325    1.7768    0.8316 N   0  0  0  0  0  0  0  0  0  0  0  0
    0.3376    4.4960    1.1839 B   0  0  0  0  0  0  0  0  0  0  0  0
    0.0433   -0.0140    4.4567 N   0  0  0  0  0  0  0  0  0  0  0  0
   -2.7088    2.2268    1.6012 B   0  0  0  0  0  0  0  0  0  0  0  0
    3.7727   -0.1326   -0.7655 N   0  0  0  0  0  0  0  0  0  0  0  0
   -2.2534   -3.6394    1.0085 B   0  0  0  0  0  0  0  0  0  0  0  0
    1.0558    3.7334    2.2357 N   0  0  0  0  0  0  0  0  0  0  0  0
   -1.8256   -0.7775    3.2198 B   0  0  0  0  0  0  0  0  0  0  0  0
   -2.4368   -3.6019   -0.4508 N   0  0  0  0  0  0  0  0  0  0  0  0
    3.0187   -1.0737   -1.5028 B   0  0  0  0  0  0  0  0  0  0  0  0
   -3.1580   -1.2526   -0.3843 N   0  0  0  0  0  0  0  0  0  0  0  0
    2.0347    2.9223    1.5617 B   0  0  0  0  0  0  0  0  0  0  0  0
   -0.5074   -2.9001   -2.4328 N   0  0  0  0  0  0  0  0  0  0  0  0
   -1.6735   -2.1129   -2.4916 B   0  0  0  0  0  0  0  0  0  0  0  0
    0.5901    3.9646   -0.1102 N   0  0  0  0  0  0  0  0  0  0  0  0
    1.0903    2.9596   -3.1825 B   0  0  0  0  0  0  0  0  0  0  0  0
    0.0774   -4.3592    1.7213 N   0  0  0  0  0  0  0  0  0  0  0  0
   -1.7840    3.4524   -0.4082 B   0  0  0  0  0  0  0  0  0  0  0  0
   -2.0135    3.4185    1.0316 N   0  0  0  0  0  0  0  0  0  0  0  0
    1.4659   -4.2121    1.4991 B   0  0  0  0  0  0  0  0  0  0  0  0
   -0.7980    1.0642    4.1946 N   0  0  0  0  0  0  0  0  0  0  0  0
   -2.6662   -2.4021   -1.1753 B   0  0  0  0  0  0  0  0  0  0  0  0
   -1.0744   -4.4843    0.9912 N   0  0  0  0  0  0  0  0  0  0  0  0
   -2.5037    0.4914   -2.1091 B   0  0  0  0  0  0  0  0  0  0  0  0
    2.3527   -3.8873    0.4531 N   0  0  0  0  0  0  0  0  0  0  0  0
    3.9123   -0.2024    0.7259 B   0  0  0  0  0  0  0  0  0  0  0  0
    1.9285    1.9570   -2.4651 N   0  0  0  0  0  0  0  0  0  0  0  0
    1.0012    2.2544   -4.6225 B   0  0  0  0  0  0  0  0  0  0  0  0
   -4.1860    0.8290   -0.3475 N   0  0  0  0  0  0  0  0  0  0  0  0
   -1.3389    2.4537   -3.1149 B   0  0  0  0  0  0  0  0  0  0  0  0
   -2.3596    1.9326   -2.3058 N   0  0  0  0  0  0  0  0  0  0  0  0
    3.0731   -2.6455    0.6011 B   0  0  0  0  0  0  0  0  0  0  0  0
    2.3352   -3.6737   -0.9709 N   0  0  0  0  0  0  0  0  0  0  0  0
    2.2179    0.5458    2.8084 B   0  0  0  0  0  0  0  0  0  0  0  0
   -2.0264    0.6119    3.6015 N   0  0  0  0  0  0  0  0  0  0  0  0
   -1.1017   -4.1838   -0.4410 B   0  0  0  0  0  0  0  0  0  0  0  0
   -3.2181    0.0417   -0.9586 N   0  0  0  0  0  0  0  0  0  0  0  0
    3.4478    1.2586   -0.5141 B   0  0  0  0  0  0  0  0  0  0  0  0
    2.5821    1.6330    1.9365 N   0  0  0  0  0  0  0  0  0  0  0  0
    1.4721   -1.5550   -3.5156 B   0  0  0  0  0  0  0  0  0  0  0  0
   -2.1026    1.7542    2.7608 N   0  0  0  0  0  0  0  0  0  0  0  0
    2.0408    0.7119   -3.2115 B   0  0  0  0  0  0  0  0  0  0  0  0
   -2.7209   -1.3417    2.3206 N   0  0  0  0  0  0  0  0  0  0  0  0
    0.6586   -0.5389   -4.4869 B   0  0  0  0  0  0  0  0  0  0  0  0
   -0.1687   -3.7594   -1.3565 N   0  0  0  0  0  0  0  0  0  0  0  0
    0.4856   -2.1056    3.4338 B   0  0  0  0  0  0  0  0  0  0  0  0
   -0.5873   -1.2050    3.8245 N   0  0  0  0  0  0  0  0  0  0  0  0
   -3.2244   -1.4514    1.0003 B   0  0  0  0  0  0  0  0  0  0  0  0
    2.6713   -0.8555    2.6211 N   0  0  0  0  0  0  0  0  0  0  0  0
    1.8786    3.3393   -0.1064 B   0  0  0  0  0  0  0  0  0  0  0  0
    2.8769   -2.3318   -0.7936 N   0  0  0  0  0  0  0  0  0  0  0  0
  1  2  1  0  0  0  0
  2  3  1  0  0  0  0
  2  4  1  0  0  0  0
  2  5  1  0  0  0  0
  5  6  1  0  0  0  0
  6  7  2  0  0  0  0
  6  8  1  0  0  0  0
  8  9  1  0  0  0  0
  9 10  1  0  0  0  0
 10 11  4  0  0  0  0
 11 12  4  0  0  0  0
 12 13  4  0  0  0  0
 13 14  4  0  0  0  0
 10 15  4  0  0  0  0
 14 15  4  0  0  0  0
  9 16  1  0  0  0  0
 16 17  1  0  0  0  0
 16 18  1  0  0  0  0
 18 19  2  0  0  0  0
 18 20  1  0  0  0  0
 20 21  1  0  0  0  0
 21 22  1  0  0  0  0
 22 23  1  0  0  0  0
 23 24  1  0  0  0  0
 23 25  1  0  0  0  0
 25 26  2  0  0  0  0
 26 27  1  0  0  0  0
 27 28  2  0  0  0  0
 27 29  1  0  0  0  0
 29 30  1  0  0  0  0
 29 31  1  0  0  0  0
 31 32  1  0  0  0  0
 31 33  1  0  0  0  0
 33 34  1  0  0  0  0
 34 35  1  0  0  0  0
 35 36  1  0  0  0  0
 36 37  1  0  0  0  0
 37 38  2  0  0  0  0
 37 39  1  0  0  0  0
 39 40  4  0  0  0  0
 40 41  4  0  0  0  0
 41 42  4  0  0  0  0
 42 43  4  0  0  0  0
 39 44  4  0  0  0  0
 43 44  4  0  0  0  0
 26 45  1  0  0  0  0
 31 45  1  0  0  0  0
 35 45  1  0  0  0  0
 45 46  1  0  0  0  0
 23 47  1  0  0  0  0
 33 47  1  0  0  0  0
 47 48  1  0  0  0  0
 47 49  1  0  0  0  0
 21 50  1  0  0  0  0
 25 50  1  0  0  0  0
  1 51  1  0  0  0  0
  1 52  1  0  0  0  0
  1 53  1  0  0  0  0
  3 54  1  0  0  0  0
  3 55  1  0  0  0  0
  3 56  1  0  0  0  0
  4 57  1  0  0  0  0
  4 58  1  0  0  0  0
  4 59  1  0  0  0  0
  8 60  1  0  0  0  0
  9 61  1  0  0  0  0
 11 62  1  0  0  0  0
 12 63  1  0  0  0  0
 13 64  1  0  0  0  0
 14 65  1  0  0  0  0
 15 66  1  0  0  0  0
 16 67  1  0  0  0  0
 17 68  1  0  0  0  0
 21 69  1  0  0  0  0
 22 70  1  0  0  0  0
 22 71  1  0  0  0  0
 24 72  1  0  0  0  0
 29 73  1  0  0  0  0
 30 74  1  0  0  0  0
 32 75  1  0  0  0  0
 32 76  1  0  0  0  0
 32 77  1  0  0  0  0
 33 78  1  0  0  0  0
 34 79  1  0  0  0  0
 34 80  1  0  0  0  0
 35 81  1  0  0  0  0
 40 82  1  0  0  0  0
 41 83  1  0  0  0  0
 42 84  1  0  0  0  0
 43 85  1  0  0  0  0
 44 86  1  0  0  0  0
 46 87  1  0  0  0  0
 46 88  1  0  0  0  0
 46 89  1  0  0  0  0
 48 90  1  0  0  0  0
 48 91  1  0  0  0  0
 48 92  1  0  0  0  0
 49 93  1  0  0  0  0
 49 94  1  0  0  0  0
 49 95  1  0  0  0  0
 50 96  1  0  0  0  0
 50 97  1  0  0  0  0
105106  1  0  0  0  0
108109  1  0  0  0  0
104111  1  0  0  0  0
107112  1  0  0  0  0
111114  1  0  0  0  0
113116  1  0  0  0  0
115117  1  0  0  0  0
105118  1  0  0  0  0
108119  1  0  0  0  0
104120  1  0  0  0  0
117121  1  0  0  0  0
119122  1  0  0  0  0
103124  1  0  0  0  0
111125  1  0  0  0  0
120125  1  0  0  0  0
124127  1  0  0  0  0
101128  1  0  0  0  0
123128  1  0  0  0  0
125130  1  0  0  0  0
112131  1  0  0  0  0
118132  1  0  0  0  0
131132  1  0  0  0  0
113133  1  0  0  0  0
120133  1  0  0  0  0
116134  1  0  0  0  0
102135  1  0  0  0  0
109136  1  0  0  0  0
113136  1  0  0  0  0
104137  1  0  0  0  0
122137  1  0  0  0  0
136137  1  0  0  0  0
102138  1  0  0  0  0
135138  1  0  0  0  0
114139  1  0  0  0  0
121139  1  0  0  0  0
127140  1  0  0  0  0
129140  1  0  0  0  0
132140  1  0  0  0  0
124141  1  0  0  0  0
135141  1  0  0  0  0
118142  1  0  0  0  0
138143  1  0  0  0  0
 98144  1  0  0  0  0
 99144  1  0  0  0  0
123144  1  0  0  0  0
100145  1  0  0  0  0
134145  1  0  0  0  0
106146  1  0  0  0  0
110146  1  0  0  0  0
134146  1  0  0  0  0
108147  1  0  0  0  0
119147  1  0  0  0  0
106148  1  0  0  0  0
116148  1  0  0  0  0
109149  1  0  0  0  0
142149  1  0  0  0  0
148149  1  0  0  0  0
 98150  1  0  0  0  0
143150  1  0  0  0  0
107151  1  0  0  0  0
143151  1  0  0  0  0
117152  1  0  0  0  0
126153  1  0  0  0  0
139153  1  0  0  0  0
127154  1  0  0  0  0
141154  1  0  0  0  0
129155  1  0  0  0  0
142155  1  0  0  0  0
147155  1  0  0  0  0
 99156  1  0  0  0  0
100156  1  0  0  0  0
123156  1  0  0  0  0
 99157  1  0  0  0  0
130157  1  0  0  0  0
152157  1  0  0  0  0
101158  1  0  0  0  0
112158  1  0  0  0  0
114159  1  0  0  0  0
122159  1  0  0  0  0
153159  1  0  0  0  0
101160  1  0  0  0  0
110160  1  0  0  0  0
145160  1  0  0  0  0
103161  1  0  0  0  0
126161  1  0  0  0  0
105162  1  0  0  0  0
110162  1  0  0  0  0
158162  1  0  0  0  0
107163  1  0  0  0  0
131163  1  0  0  0  0
154163  1  0  0  0  0
102164  1  0  0  0  0
115164  1  0  0  0  0
121165  1  0  0  0  0
126165  1  0  0  0  0
164165  1  0  0  0  0
103166  1  0  0  0  0
129166  1  0  0  0  0
161166  1  0  0  0  0
 98167  1  0  0  0  0
115167  1  0  0  0  0
152167  1  0  0  0  0
100168  1  0  0  0  0
130168  1  0  0  0  0
133168  1  0  0  0  0
128169  1  0  0  0  0
150169  1  0  0  0  0
151169  1  0  0  0  0
M  END
