 xtb: 6.7.1pre (5071a88)
          08312618313D

169170  0     0  0            999 V2000
    8.8556   -2.9556    1.2279 C   0  0  0  0  0  0  0  0  0  0  0  0
    7.8841   -2.2002    2.1476 C   0  0  0  0  0  0  0  0  0  0  0  0
    8.6822   -1.1879    2.9767 C   0  0  0  0  0  0  0  0  0  0  0  0
    7.1561   -3.2185    3.0323 C   0  0  0  0  0  0  0  0  0  0  0  0
    6.9646   -1.5347    1.2446 O   0  0  0  0  0  0  0  0  0  0  0  0
    5.9615   -0.7667    1.7238 C   0  0  0  0  0  0  0  0  0  0  0  0
    5.7115   -0.5483    2.8983 O   0  0  0  0  0  0  0  0  0  0  0  0
    5.2433   -0.2799    0.6774 N   0  0  0  0  0  0  0  0  0  0  0  0
    3.9665    0.3984    0.8724 C   0  0  0  0  0  0  0  0  0  0  0  0
    3.6295    1.2165   -0.3702 C   0  0  0  0  0  0  0  0  0  0  0  0
    3.4546    2.6059   -0.2596 C   0  0  0  0  0  0  0  0  0  0  0  0
    3.1573    3.3815   -1.3818 C   0  0  0  0  0  0  0  0  0  0  0  0
    3.0323    2.7810   -2.6317 C   0  0  0  0  0  0  0  0  0  0  0  0
    3.1984    1.4042   -2.7594 C   0  0  0  0  0  0  0  0  0  0  0  0
    3.4949    0.6271   -1.6379 C   0  0  0  0  0  0  0  0  0  0  0  0
    2.8492   -0.5898    1.3021 C   0  0  0  0  0  0  0  0  0  0  0  0
    2.6448   -1.6087    0.3073 O   0  0  0  0  0  0  0  0  0  0  0  0
    1.5754    0.1817    1.6675 C   0  0  0  0  0  0  0  0  0  0  0  0
    1.5261    1.2841    2.1952 O   0  0  0  0  0  0  0  0  0  0  0  0
    0.4884   -0.5481    1.2871 O   0  0  0  0  0  0  0  0  0  0  0  0
   -0.7620    0.1565    1.2327 C   0  0  0  0  0  0  0  0  0  0  0  0
   -0.8415    0.9890   -0.0523 C   0  0  0  0  0  0  0  0  0  0  0  0
   -1.1944   -0.0263   -1.1649 C   0  0  0  0  0  0  0  0  0  0  0  0
    0.0004   -0.8036   -1.3819 O   0  0  0  0  0  0  0  0  0  0  0  0
   -2.1523   -0.9274   -0.4090 C   0  0  0  0  0  0  0  0  0  0  0  0
   -3.2872   -1.4419   -0.9086 C   0  0  0  0  0  0  0  0  0  0  0  0
   -2.9689   -2.2456   -2.1488 C   0  0  0  0  0  0  0  0  0  0  0  0
   -2.1764   -3.1791   -2.1595 O   0  0  0  0  0  0  0  0  0  0  0  0
   -3.7400   -1.7622   -3.3494 C   0  0  0  0  0  0  0  0  0  0  0  0
   -4.7679   -2.6895   -3.6578 O   0  0  0  0  0  0  0  0  0  0  0  0
   -4.2665   -0.4188   -2.8297 C   0  0  0  0  0  0  0  0  0  0  0  0
   -5.5203   -0.0038   -3.6363 C   0  0  0  0  0  0  0  0  0  0  0  0
   -3.2307    0.7979   -2.7960 C   0  0  0  0  0  0  0  0  0  0  0  0
   -3.8603    1.7210   -1.7268 C   0  0  0  0  0  0  0  0  0  0  0  0
   -4.7154    0.8343   -0.8143 C   0  0  0  0  0  0  0  0  0  0  0  0
   -4.3499    1.0621    0.5510 O   0  0  0  0  0  0  0  0  0  0  0  0
   -5.3575    1.0339    1.4603 C   0  0  0  0  0  0  0  0  0  0  0  0
   -6.5254    0.7649    1.2346 O   0  0  0  0  0  0  0  0  0  0  0  0
   -4.8348    1.3501    2.8132 C   0  0  0  0  0  0  0  0  0  0  0  0
   -5.5696    0.9226    3.9260 C   0  0  0  0  0  0  0  0  0  0  0  0
   -5.1085    1.1934    5.2154 C   0  0  0  0  0  0  0  0  0  0  0  0
   -3.9173    1.8961    5.3970 C   0  0  0  0  0  0  0  0  0  0  0  0
   -3.1880    2.3360    4.2926 C   0  0  0  0  0  0  0  0  0  0  0  0
   -3.6468    2.0693    3.0012 C   0  0  0  0  0  0  0  0  0  0  0  0
   -4.5332   -0.6299   -1.3080 C   0  0  0  0  0  0  0  0  0  0  0  0
   -5.7666   -1.4627   -0.9233 C   0  0  0  0  0  0  0  0  0  0  0  0
   -1.6537    0.6015   -2.5663 C   0  0  0  0  0  0  0  0  0  0  0  0
   -0.9854    2.0076   -2.7454 C   0  0  0  0  0  0  0  0  0  0  0  0
   -1.0421   -0.1925   -3.7627 C   0  0  0  0  0  0  0  0  0  0  0  0
   -1.8850   -0.8675    1.0781 C   0  0  0  0  0  0  0  0  0  0  0  0
    8.3161   -3.6658    0.5903 H   0  0  0  0  0  0  0  0  0  0  0  0
    9.3704   -2.2630    0.5518 H   0  0  0  0  0  0  0  0  0  0  0  0
    9.6104   -3.5073    1.7982 H   0  0  0  0  0  0  0  0  0  0  0  0
    9.1230   -0.4190    2.3321 H   0  0  0  0  0  0  0  0  0  0  0  0
    8.0515   -0.6652    3.7020 H   0  0  0  0  0  0  0  0  0  0  0  0
    9.4871   -1.6772    3.5357 H   0  0  0  0  0  0  0  0  0  0  0  0
    6.5234   -3.8772    2.4268 H   0  0  0  0  0  0  0  0  0  0  0  0
    6.4978   -2.7326    3.7587 H   0  0  0  0  0  0  0  0  0  0  0  0
    7.8646   -3.8361    3.5947 H   0  0  0  0  0  0  0  0  0  0  0  0
    5.4453   -0.7075   -0.2141 H   0  0  0  0  0  0  0  0  0  0  0  0
    4.1240    1.0964    1.7064 H   0  0  0  0  0  0  0  0  0  0  0  0
    3.5481    3.0968    0.7079 H   0  0  0  0  0  0  0  0  0  0  0  0
    3.0272    4.4556   -1.2784 H   0  0  0  0  0  0  0  0  0  0  0  0
    2.8039    3.3850   -3.5056 H   0  0  0  0  0  0  0  0  0  0  0  0
    3.0971    0.9322   -3.7333 H   0  0  0  0  0  0  0  0  0  0  0  0
    3.6219   -0.4457   -1.7676 H   0  0  0  0  0  0  0  0  0  0  0  0
    3.1514   -1.1204    2.2121 H   0  0  0  0  0  0  0  0  0  0  0  0
    1.8319   -1.3534   -0.1807 H   0  0  0  0  0  0  0  0  0  0  0  0
   -0.8947    0.7534    2.1412 H   0  0  0  0  0  0  0  0  0  0  0  0
   -1.6147    1.7486    0.0776 H   0  0  0  0  0  0  0  0  0  0  0  0
    0.1131    1.4858   -0.2546 H   0  0  0  0  0  0  0  0  0  0  0  0
   -0.2804   -1.7185   -1.5882 H   0  0  0  0  0  0  0  0  0  0  0  0
   -3.1205   -1.6429   -4.2370 H   0  0  0  0  0  0  0  0  0  0  0  0
   -4.3298   -3.5452   -3.8301 H   0  0  0  0  0  0  0  0  0  0  0  0
   -6.3187   -0.7501   -3.5744 H   0  0  0  0  0  0  0  0  0  0  0  0
   -5.9486    0.9450   -3.3012 H   0  0  0  0  0  0  0  0  0  0  0  0
   -5.2638    0.1139   -4.6955 H   0  0  0  0  0  0  0  0  0  0  0  0
   -3.3151    1.3103   -3.7661 H   0  0  0  0  0  0  0  0  0  0  0  0
   -4.5178    2.4406   -2.2331 H   0  0  0  0  0  0  0  0  0  0  0  0
   -3.1579    2.3333   -1.1656 H   0  0  0  0  0  0  0  0  0  0  0  0
   -5.7555    1.1539   -0.9677 H   0  0  0  0  0  0  0  0  0  0  0  0
   -6.5007    0.3749    3.7924 H   0  0  0  0  0  0  0  0  0  0  0  0
   -5.6786    0.8570    6.0781 H   0  0  0  0  0  0  0  0  0  0  0  0
   -3.5590    2.1058    6.4024 H   0  0  0  0  0  0  0  0  0  0  0  0
   -2.2632    2.8899    4.4386 H   0  0  0  0  0  0  0  0  0  0  0  0
   -3.0739    2.4336    2.1530 H   0  0  0  0  0  0  0  0  0  0  0  0
   -5.8190   -1.5985    0.1631 H   0  0  0  0  0  0  0  0  0  0  0  0
   -6.6973   -0.9794   -1.2386 H   0  0  0  0  0  0  0  0  0  0  0  0
   -5.7559   -2.4656   -1.3611 H   0  0  0  0  0  0  0  0  0  0  0  0
   -1.3126    2.7457   -2.0103 H   0  0  0  0  0  0  0  0  0  0  0  0
   -1.2093    2.4248   -3.7348 H   0  0  0  0  0  0  0  0  0  0  0  0
    0.1042    1.9370   -2.6626 H   0  0  0  0  0  0  0  0  0  0  0  0
   -1.5002    0.1064   -4.7125 H   0  0  0  0  0  0  0  0  0  0  0  0
    0.0346   -0.0021   -3.8601 H   0  0  0  0  0  0  0  0  0  0  0  0
   -1.1336   -1.2731   -3.6646 H   0  0  0  0  0  0  0  0  0  0  0  0
   -2.7771   -0.5551    1.6237 H   0  0  0  0  0  0  0  0  0  0  0  0
   -1.5783   -1.8525    1.4466 H   0  0  0  0  0  0  0  0  0  0  0  0
    2.1012    0.0000    3.3450 B   0  0  0  0  0  0  0  0  0  0  0  0
   -2.1012    0.0000    3.3450 B   0  0  0  0  0  0  0  0  0  0  0  0
    0.0000    2.1012    3.3450 B   0  0  0  0  0  0  0  0  0  0  0  0
    0.0000   -2.1012    3.3450 B   0  0  0  0  0  0  0  0  0  0  0  0
    3.3450    2.1012    0.0000 B   0  0  0  0  0  0  0  0  0  0  0  0
    3.3450   -2.1012    0.0000 B   0  0  0  0  0  0  0  0  0  0  0  0
    3.3450    0.0000    2.1012 B   0  0  0  0  0  0  0  0  0  0  0  0
    3.3450    0.0000   -2.1012 B   0  0  0  0  0  0  0  0  0  0  0  0
   -3.3450    2.1012    0.0000 B   0  0  0  0  0  0  0  0  0  0  0  0
   -3.3450   -2.1012    0.0000 B   0  0  0  0  0  0  0  0  0  0  0  0
   -3.3450    0.0000    2.1012 B   0  0  0  0  0  0  0  0  0  0  0  0
   -3.3450    0.0000   -2.1012 B   0  0  0  0  0  0  0  0  0  0  0  0
    2.1012    0.0000   -3.3450 B   0  0  0  0  0  0  0  0  0  0  0  0
   -2.1012    0.0000   -3.3450 B   0  0  0  0  0  0  0  0  0  0  0  0
    0.0000    2.1012   -3.3450 B   0  0  0  0  0  0  0  0  0  0  0  0
    0.0000   -2.1012   -3.3450 B   0  0  0  0  0  0  0  0  0  0  0  0
    0.0000    3.3450    2.1012 B   0  0  0  0  0  0  0  0  0  0  0  0
    0.0000    3.3450   -2.1012 B   0  0  0  0  0  0  0  0  0  0  0  0
    0.0000   -3.3450    2.1012 B   0  0  0  0  0  0  0  0  0  0  0  0
    0.0000   -3.3450   -2.1012 B   0  0  0  0  0  0  0  0  0  0  0  0
    2.1012    3.3450    0.0000 B   0  0  0  0  0  0  0  0  0  0  0  0
   -2.1012    3.3450    0.0000 B   0  0  0  0  0  0  0  0  0  0  0  0
    2.1012   -3.3450    0.0000 B   0  0  0  0  0  0  0  0  0  0  0  0
   -2.1012   -3.3450    0.0000 B   0  0  0  0  0  0  0  0  0  0  0  0
    1.4800    1.4800    3.5800 B   0  0  0  0  0  0  0  0  0  0  0  0
   -1.4800    1.4800    3.5800 B   0  0  0  0  0  0  0  0  0  0  0  0
    1.4800   -1.4800    3.5800 B   0  0  0  0  0  0  0  0  0  0  0  0
   -1.4800   -1.4800    3.5800 B   0  0  0  0  0  0  0  0  0  0  0  0
    3.5800    1.4800    1.4800 B   0  0  0  0  0  0  0  0  0  0  0  0
    3.5800   -1.4800    1.4800 B   0  0  0  0  0  0  0  0  0  0  0  0
    3.5800    1.4800   -1.4800 B   0  0  0  0  0  0  0  0  0  0  0  0
    3.5800   -1.4800   -1.4800 B   0  0  0  0  0  0  0  0  0  0  0  0
   -3.5800    1.4800    1.4800 B   0  0  0  0  0  0  0  0  0  0  0  0
   -3.5800   -1.4800    1.4800 B   0  0  0  0  0  0  0  0  0  0  0  0
   -3.5800    1.4800   -1.4800 B   0  0  0  0  0  0  0  0  0  0  0  0
   -3.5800   -1.4800   -1.4800 B   0  0  0  0  0  0  0  0  0  0  0  0
    2.1012    0.0000    3.9200 N   0  0  0  0  0  0  0  0  0  0  0  0
   -2.1012    0.0000    3.9200 N   0  0  0  0  0  0  0  0  0  0  0  0
    0.0000    2.1012    3.9200 N   0  0  0  0  0  0  0  0  0  0  0  0
    0.0000   -2.1012    3.9200 N   0  0  0  0  0  0  0  0  0  0  0  0
    3.9200    2.1012    0.0000 N   0  0  0  0  0  0  0  0  0  0  0  0
    3.9200   -2.1012    0.0000 N   0  0  0  0  0  0  0  0  0  0  0  0
    3.9200    0.0000    2.1012 N   0  0  0  0  0  0  0  0  0  0  0  0
    3.9200    0.0000   -2.1012 N   0  0  0  0  0  0  0  0  0  0  0  0
   -3.9200    2.1012    0.0000 N   0  0  0  0  0  0  0  0  0  0  0  0
   -3.9200   -2.1012    0.0000 N   0  0  0  0  0  0  0  0  0  0  0  0
   -3.9200    0.0000    2.1012 N   0  0  0  0  0  0  0  0  0  0  0  0
   -3.9200    0.0000   -2.1012 N   0  0  0  0  0  0  0  0  0  0  0  0
    2.1012    0.0000   -3.9200 N   0  0  0  0  0  0  0  0  0  0  0  0
   -2.1012    0.0000   -3.9200 N   0  0  0  0  0  0  0  0  0  0  0  0
    0.0000    2.1012   -3.9200 N   0  0  0  0  0  0  0  0  0  0  0  0
    0.0000   -2.1012   -3.9200 N   0  0  0  0  0  0  0  0  0  0  0  0
    0.0000    3.9200    2.1012 N   0  0  0  0  0  0  0  0  0  0  0  0
    0.0000    3.9200   -2.1012 N   0  0  0  0  0  0  0  0  0  0  0  0
    0.0000   -3.9200    2.1012 N   0  0  0  0  0  0  0  0  0  0  0  0
    0.0000   -3.9200   -2.1012 N   0  0  0  0  0  0  0  0  0  0  0  0
    2.1012    3.9200    0.0000 N   0  0  0  0  0  0  0  0  0  0  0  0
   -2.1012    3.9200    0.0000 N   0  0  0  0  0  0  0  0  0  0  0  0
    2.1012   -3.9200    0.0000 N   0  0  0  0  0  0  0  0  0  0  0  0
   -2.1012   -3.9200    0.0000 N   0  0  0  0  0  0  0  0  0  0  0  0
    1.4800    1.4800    4.2200 N   0  0  0  0  0  0  0  0  0  0  0  0
   -1.4800    1.4800    4.2200 N   0  0  0  0  0  0  0  0  0  0  0  0
    1.4800   -1.4800    4.2200 N   0  0  0  0  0  0  0  0  0  0  0  0
   -1.4800   -1.4800    4.2200 N   0  0  0  0  0  0  0  0  0  0  0  0
    4.2200    1.4800    1.4800 N   0  0  0  0  0  0  0  0  0  0  0  0
    4.2200   -1.4800    1.4800 N   0  0  0  0  0  0  0  0  0  0  0  0
    4.2200    1.4800   -1.4800 N   0  0  0  0  0  0  0  0  0  0  0  0
    4.2200   -1.4800   -1.4800 N   0  0  0  0  0  0  0  0  0  0  0  0
   -4.2200    1.4800    1.4800 N   0  0  0  0  0  0  0  0  0  0  0  0
   -4.2200   -1.4800    1.4800 N   0  0  0  0  0  0  0  0  0  0  0  0
   -4.2200    1.4800   -1.4800 N   0  0  0  0  0  0  0  0  0  0  0  0
   -4.2200   -1.4800   -1.4800 N   0  0  0  0  0  0  0  0  0  0  0  0
  1  2  1  0  0  0  0
  2  3  1  0  0  0  0
  2  4  1  0  0  0  0
  2  5  1  0  0  0  0
  5  6  1  0  0  0  0
  6  7  4  0  0  0  0
  6  8  1  0  0  0  0
  8  9  1  0  0  0  0
  9 10  1  0  0  0  0
 11 12  1  0  0  0  0
 12 13  4  0  0  0  0
 13 14  1  0  0  0  0
 10 15  1  0  0  0  0
 14 15  1  0  0  0  0
  9 16  1  0  0  0  0
 16 17  1  0  0  0  0
 16 18  1  0  0  0  0
 18 19  1  0  0  0  0
 18 20  1  0  0  0  0
 20 21  1  0  0  0  0
 21 22  1  0  0  0  0
 22 23  1  0  0  0  0
 23 24  1  0  0  0  0
 23 25  1  0  0  0  0
 25 26  1  0  0  0  0
 27 28  4  0  0  0  0
 27 29  1  0  0  0  0
 29 30  1  0  0  0  0
 29 31  1  0  0  0  0
 31 32  1  0  0  0  0
 35 36  1  0  0  0  0
 36 37  1  0  0  0  0
 37 38  4  0  0  0  0
 37 39  1  0  0  0  0
 39 40  4  0  0  0  0
 40 41  4  0  0  0  0
 41 42  4  0  0  0  0
 42 43  4  0  0  0  0
 39 44  1  0  0  0  0
 43 44  4  0  0  0  0
 35 45  1  0  0  0  0
 45 46  1  0  0  0  0
 23 47  1  0  0  0  0
 33 47  1  0  0  0  0
 47 48  1  0  0  0  0
 47 49  1  0  0  0  0
 21 50  1  0  0  0  0
 25 50  1  0  0  0  0
  1 51  1  0  0  0  0
  1 52  1  0  0  0  0
  1 53  1  0  0  0  0
  3 54  1  0  0  0  0
  3 55  1  0  0  0  0
  3 56  1  0  0  0  0
  4 57  1  0  0  0  0
  4 58  1  0  0  0  0
  4 59  1  0  0  0  0
  8 60  1  0  0  0  0
 11 62  1  0  0  0  0
 12 63  1  0  0  0  0
 13 64  1  0  0  0  0
 14 65  1  0  0  0  0
 17 68  1  0  0  0  0
 21 69  1  0  0  0  0
 22 70  1  0  0  0  0
 22 71  1  0  0  0  0
 24 72  1  0  0  0  0
 29 73  1  0  0  0  0
 30 74  1  0  0  0  0
 32 75  1  0  0  0  0
 32 76  1  0  0  0  0
 32 77  1  0  0  0  0
 33 78  1  0  0  0  0
 35 81  1  0  0  0  0
 40 82  1  0  0  0  0
 41 83  1  0  0  0  0
 42 84  1  0  0  0  0
 43 85  1  0  0  0  0
 44 86  1  0  0  0  0
 46 87  1  0  0  0  0
 46 88  1  0  0  0  0
 46 89  1  0  0  0  0
 48 90  1  0  0  0  0
 48 91  1  0  0  0  0
 48 92  1  0  0  0  0
 49 93  1  0  0  0  0
 49 94  1  0  0  0  0
 49 95  1  0  0  0  0
 50 96  1  0  0  0  0
 50 97  1  0  0  0  0
 10102  1  0  0  0  0
 11102  1  0  0  0  0
 17103  1  0  0  0  0
 16104  1  0  0  0  0
 15105  1  0  0  0  0
 26107  1  0  0  0  0
 33109  1  0  0  0  0
105110  1  0  0  0  0
 47111  1  0  0  0  0
 49111  1  0  0  0  0
 48112  1  0  0  0  0
 92112  1  0  0  0  0
 19122  1  0  0  0  0
102126  1  0  0  0  0
 16127  1  0  0  0  0
 10128  1  0  0  0  0
 14128  1  0  0  0  0
 15128  1  0  0  0  0
 34132  2  0  0  0  0
 80132  1  0  0  0  0
 26133  1  0  0  0  0
 27133  1  0  0  0  0
 98134  3  0  0  0  0
 99135  3  0  0  0  0
100136  3  0  0  0  0
101137  3  0  0  0  0
 10138  1  0  0  0  0
 11138  1  0  0  0  0
102138  1  0  0  0  0
103139  3  0  0  0  0
  9140  1  0  0  0  0
 16140  1  0  0  0  0
104140  3  0  0  0  0
 15141  1  0  0  0  0
105141  2  0  0  0  0
 36142  1  0  0  0  0
106142  3  0  0  0  0
 26143  1  0  0  0  0
107143  3  0  0  0  0
108144  3  0  0  0  0
 31145  1  0  0  0  0
 33145  1  0  0  0  0
 45145  1  0  0  0  0
109145  2  0  0  0  0
110146  3  0  0  0  0
 49147  1  0  0  0  0
 93147  1  0  0  0  0
111147  2  0  0  0  0
112148  3  0  0  0  0
113149  3  0  0  0  0
114150  3  0  0  0  0
115151  3  0  0  0  0
116152  3  0  0  0  0
117153  3  0  0  0  0
118154  3  0  0  0  0
119155  3  0  0  0  0
120156  3  0  0  0  0
121157  3  0  0  0  0
122158  3  0  0  0  0
123159  3  0  0  0  0
124160  3  0  0  0  0
125161  3  0  0  0  0
  9162  1  0  0  0  0
 61162  1  0  0  0  0
126162  2  0  0  0  0
127163  3  0  0  0  0
 10164  1  0  0  0  0
 15164  1  0  0  0  0
128164  2  0  0  0  0
129165  3  0  0  0  0
 36166  1  0  0  0  0
 37166  1  0  0  0  0
130166  2  0  0  0  0
131167  3  0  0  0  0
 34168  2  0  0  0  0
 35168  1  0  0  0  0
132168  1  0  0  0  0
 26169  1  0  0  0  0
 45169  1  0  0  0  0
133169  2  0  0  0  0
M  END
