 xtb: 6.7.1pre (5071a88)
          08312618413D

142130  0     0  0            999 V2000
   -4.8613    2.2723   -3.7079 C   0  0  0  0  0  0  0  0  0  0  0  0
   -4.7271    1.4871   -2.6312 C   0  0  0  0  0  0  0  0  0  0  0  0
   -3.3767    1.1016   -2.1255 C   0  0  0  0  0  0  0  0  0  0  0  0
   -2.3618    1.4713   -2.7012 O   0  0  0  0  0  0  0  0  0  0  0  0
   -3.4645    0.3255   -0.9981 N   0  0  0  0  0  0  0  0  0  0  0  0
   -2.4256   -0.2525   -0.2350 C   0  0  0  0  0  0  0  0  0  0  0  0
   -1.0639   -0.1040   -0.5063 C   0  0  0  0  0  0  0  0  0  0  0  0
   -0.1001   -0.7122    0.3109 C   0  0  0  0  0  0  0  0  0  0  0  0
    1.2852   -0.5967    0.0987 N   0  0  0  0  0  0  0  0  0  0  0  0
    2.0866    0.0268   -0.8464 C   0  0  0  0  0  0  0  0  0  0  0  0
    1.5665    0.7406   -1.8514 N   0  0  0  0  0  0  0  0  0  0  0  0
    2.4165    1.3078   -2.7214 C   0  0  0  0  0  0  0  0  0  0  0  0
    3.7777    1.1882   -2.6302 C   0  0  0  0  0  0  0  0  0  0  0  0
    4.2349    0.4383   -1.5697 C   0  0  0  0  0  0  0  0  0  0  0  0
    5.6614    0.2248   -1.3447 C   0  0  0  0  0  0  0  0  0  0  0  0
    6.5980    0.1464   -2.3606 C   0  0  0  0  0  0  0  0  0  0  0  0
    7.8275   -0.0739   -1.7980 N   0  0  0  0  0  0  0  0  0  0  0  0
    9.0583   -0.2226   -2.5423 C   0  0  0  0  0  0  0  0  0  0  0  0
    7.7237   -0.1415   -0.4260 C   0  0  0  0  0  0  0  0  0  0  0  0
    8.7009   -0.3465    0.5624 C   0  0  0  0  0  0  0  0  0  0  0  0
    8.2923   -0.3693    1.8987 C   0  0  0  0  0  0  0  0  0  0  0  0
    6.9557   -0.1939    2.2398 C   0  0  0  0  0  0  0  0  0  0  0  0
    5.9910    0.0092    1.2476 C   0  0  0  0  0  0  0  0  0  0  0  0
    6.3715    0.0356   -0.1126 C   0  0  0  0  0  0  0  0  0  0  0  0
    3.4064   -0.1395   -0.6750 N   0  0  0  0  0  0  0  0  0  0  0  0
   -0.5334   -1.4805    1.4209 C   0  0  0  0  0  0  0  0  0  0  0  0
    0.4812   -2.0337    2.1732 O   0  0  0  0  0  0  0  0  0  0  0  0
    0.1067   -2.8728    3.2573 C   0  0  0  0  0  0  0  0  0  0  0  0
   -1.8961   -1.6317    1.6946 C   0  0  0  0  0  0  0  0  0  0  0  0
   -2.8519   -1.0281    0.8687 C   0  0  0  0  0  0  0  0  0  0  0  0
   -4.2497   -1.1470    1.1024 N   0  0  0  0  0  0  0  0  0  0  0  0
   -4.7071   -2.5376    1.1251 C   0  0  0  0  0  0  0  0  0  0  0  0
   -4.6890   -0.3118    2.2417 C   0  0  0  0  0  0  0  0  0  0  0  0
   -6.0985    0.2828    1.9856 C   0  0  0  0  0  0  0  0  0  0  0  0
   -6.2145    1.1494    0.7870 N   0  0  0  0  0  0  0  0  0  0  0  0
   -7.6256    1.4370    0.5156 C   0  0  0  0  0  0  0  0  0  0  0  0
   -5.4838    2.4089    0.9698 C   0  0  0  0  0  0  0  0  0  0  0  0
   -3.9938    2.6500   -4.2427 H   0  0  0  0  0  0  0  0  0  0  0  0
   -5.8422    2.5502   -4.0755 H   0  0  0  0  0  0  0  0  0  0  0  0
   -5.5985    1.1146   -2.1072 H   0  0  0  0  0  0  0  0  0  0  0  0
   -4.3830    0.1204   -0.6006 H   0  0  0  0  0  0  0  0  0  0  0  0
   -0.7486    0.4899   -1.3553 H   0  0  0  0  0  0  0  0  0  0  0  0
    1.8525   -1.1067    0.7635 H   0  0  0  0  0  0  0  0  0  0  0  0
    1.9479    1.8801   -3.5164 H   0  0  0  0  0  0  0  0  0  0  0  0
    4.4331    1.6678   -3.3419 H   0  0  0  0  0  0  0  0  0  0  0  0
    6.4875    0.2123   -3.4351 H   0  0  0  0  0  0  0  0  0  0  0  0
    8.8541   -0.1282   -3.6120 H   0  0  0  0  0  0  0  0  0  0  0  0
    9.4729   -1.2116   -2.3314 H   0  0  0  0  0  0  0  0  0  0  0  0
    9.7496    0.5634   -2.2278 H   0  0  0  0  0  0  0  0  0  0  0  0
    9.7461   -0.4850    0.3062 H   0  0  0  0  0  0  0  0  0  0  0  0
    9.0302   -0.5267    2.6816 H   0  0  0  0  0  0  0  0  0  0  0  0
    6.6535   -0.2142    3.2836 H   0  0  0  0  0  0  0  0  0  0  0  0
    4.9488    0.1458    1.5235 H   0  0  0  0  0  0  0  0  0  0  0  0
    1.0238   -3.2530    3.7174 H   0  0  0  0  0  0  0  0  0  0  0  0
   -0.4726   -3.7346    2.9098 H   0  0  0  0  0  0  0  0  0  0  0  0
   -0.4387   -2.3090    4.0211 H   0  0  0  0  0  0  0  0  0  0  0  0
   -2.2357   -2.2041    2.5479 H   0  0  0  0  0  0  0  0  0  0  0  0
   -5.8012   -2.5706    1.0997 H   0  0  0  0  0  0  0  0  0  0  0  0
   -4.3770   -3.0672    2.0256 H   0  0  0  0  0  0  0  0  0  0  0  0
   -4.3510   -3.0817    0.2426 H   0  0  0  0  0  0  0  0  0  0  0  0
   -4.7154   -0.9139    3.1593 H   0  0  0  0  0  0  0  0  0  0  0  0
   -3.9866    0.5092    2.4338 H   0  0  0  0  0  0  0  0  0  0  0  0
   -6.7924   -0.5605    1.8753 H   0  0  0  0  0  0  0  0  0  0  0  0
   -6.4170    0.8313    2.8819 H   0  0  0  0  0  0  0  0  0  0  0  0
   -7.7266    2.0517   -0.3859 H   0  0  0  0  0  0  0  0  0  0  0  0
   -8.1094    1.9609    1.3478 H   0  0  0  0  0  0  0  0  0  0  0  0
   -8.1768    0.5099    0.3225 H   0  0  0  0  0  0  0  0  0  0  0  0
   -5.8401    2.9694    1.8416 H   0  0  0  0  0  0  0  0  0  0  0  0
   -5.5946    3.0474    0.0859 H   0  0  0  0  0  0  0  0  0  0  0  0
   -4.4101    2.2353    1.0861 H   0  0  0  0  0  0  0  0  0  0  0  0
    2.1012    0.0000    3.3450 B   0  0  0  0  0  0  0  0  0  0  0  0
   -2.1012    0.0000    3.3450 B   0  0  0  0  0  0  0  0  0  0  0  0
    0.0000    2.1012    3.3450 B   0  0  0  0  0  0  0  0  0  0  0  0
    0.0000   -2.1012    3.3450 B   0  0  0  0  0  0  0  0  0  0  0  0
    3.3450    2.1012    0.0000 B   0  0  0  0  0  0  0  0  0  0  0  0
    3.3450   -2.1012    0.0000 B   0  0  0  0  0  0  0  0  0  0  0  0
    3.3450    0.0000    2.1012 B   0  0  0  0  0  0  0  0  0  0  0  0
    3.3450    0.0000   -2.1012 B   0  0  0  0  0  0  0  0  0  0  0  0
   -3.3450    2.1012    0.0000 B   0  0  0  0  0  0  0  0  0  0  0  0
   -3.3450   -2.1012    0.0000 B   0  0  0  0  0  0  0  0  0  0  0  0
   -3.3450    0.0000    2.1012 B   0  0  0  0  0  0  0  0  0  0  0  0
   -3.3450    0.0000   -2.1012 B   0  0  0  0  0  0  0  0  0  0  0  0
    2.1012    0.0000   -3.3450 B   0  0  0  0  0  0  0  0  0  0  0  0
   -2.1012    0.0000   -3.3450 B   0  0  0  0  0  0  0  0  0  0  0  0
    0.0000    2.1012   -3.3450 B   0  0  0  0  0  0  0  0  0  0  0  0
    0.0000   -2.1012   -3.3450 B   0  0  0  0  0  0  0  0  0  0  0  0
    0.0000    3.3450    2.1012 B   0  0  0  0  0  0  0  0  0  0  0  0
    0.0000    3.3450   -2.1012 B   0  0  0  0  0  0  0  0  0  0  0  0
    0.0000   -3.3450    2.1012 B   0  0  0  0  0  0  0  0  0  0  0  0
    0.0000   -3.3450   -2.1012 B   0  0  0  0  0  0  0  0  0  0  0  0
    2.1012    3.3450    0.0000 B   0  0  0  0  0  0  0  0  0  0  0  0
   -2.1012    3.3450    0.0000 B   0  0  0  0  0  0  0  0  0  0  0  0
    2.1012   -3.3450    0.0000 B   0  0  0  0  0  0  0  0  0  0  0  0
   -2.1012   -3.3450    0.0000 B   0  0  0  0  0  0  0  0  0  0  0  0
    1.4800    1.4800    3.5800 B   0  0  0  0  0  0  0  0  0  0  0  0
   -1.4800    1.4800    3.5800 B   0  0  0  0  0  0  0  0  0  0  0  0
    1.4800   -1.4800    3.5800 B   0  0  0  0  0  0  0  0  0  0  0  0
   -1.4800   -1.4800    3.5800 B   0  0  0  0  0  0  0  0  0  0  0  0
    3.5800    1.4800    1.4800 B   0  0  0  0  0  0  0  0  0  0  0  0
    3.5800   -1.4800    1.4800 B   0  0  0  0  0  0  0  0  0  0  0  0
    3.5800    1.4800   -1.4800 B   0  0  0  0  0  0  0  0  0  0  0  0
    3.5800   -1.4800   -1.4800 B   0  0  0  0  0  0  0  0  0  0  0  0
   -3.5800    1.4800    1.4800 B   0  0  0  0  0  0  0  0  0  0  0  0
   -3.5800   -1.4800    1.4800 B   0  0  0  0  0  0  0  0  0  0  0  0
   -3.5800    1.4800   -1.4800 B   0  0  0  0  0  0  0  0  0  0  0  0
   -3.5800   -1.4800   -1.4800 B   0  0  0  0  0  0  0  0  0  0  0  0
    2.1012    0.0000    3.9200 N   0  0  0  0  0  0  0  0  0  0  0  0
   -2.1012    0.0000    3.9200 N   0  0  0  0  0  0  0  0  0  0  0  0
    0.0000    2.1012    3.9200 N   0  0  0  0  0  0  0  0  0  0  0  0
    0.0000   -2.1012    3.9200 N   0  0  0  0  0  0  0  0  0  0  0  0
    3.9200    2.1012    0.0000 N   0  0  0  0  0  0  0  0  0  0  0  0
    3.9200   -2.1012    0.0000 N   0  0  0  0  0  0  0  0  0  0  0  0
    3.9200    0.0000    2.1012 N   0  0  0  0  0  0  0  0  0  0  0  0
    3.9200    0.0000   -2.1012 N   0  0  0  0  0  0  0  0  0  0  0  0
   -3.9200    2.1012    0.0000 N   0  0  0  0  0  0  0  0  0  0  0  0
   -3.9200   -2.1012    0.0000 N   0  0  0  0  0  0  0  0  0  0  0  0
   -3.9200    0.0000    2.1012 N   0  0  0  0  0  0  0  0  0  0  0  0
   -3.9200    0.0000   -2.1012 N   0  0  0  0  0  0  0  0  0  0  0  0
    2.1012    0.0000   -3.9200 N   0  0  0  0  0  0  0  0  0  0  0  0
   -2.1012    0.0000   -3.9200 N   0  0  0  0  0  0  0  0  0  0  0  0
    0.0000    2.1012   -3.9200 N   0  0  0  0  0  0  0  0  0  0  0  0
    0.0000   -2.1012   -3.9200 N   0  0  0  0  0  0  0  0  0  0  0  0
    0.0000    3.9200    2.1012 N   0  0  0  0  0  0  0  0  0  0  0  0
    0.0000    3.9200   -2.1012 N   0  0  0  0  0  0  0  0  0  0  0  0
    0.0000   -3.9200    2.1012 N   0  0  0  0  0  0  0  0  0  0  0  0
    0.0000   -3.9200   -2.1012 N   0  0  0  0  0  0  0  0  0  0  0  0
    2.1012    3.9200    0.0000 N   0  0  0  0  0  0  0  0  0  0  0  0
   -2.1012    3.9200    0.0000 N   0  0  0  0  0  0  0  0  0  0  0  0
    2.1012   -3.9200    0.0000 N   0  0  0  0  0  0  0  0  0  0  0  0
   -2.1012   -3.9200    0.0000 N   0  0  0  0  0  0  0  0  0  0  0  0
    1.4800    1.4800    4.2200 N   0  0  0  0  0  0  0  0  0  0  0  0
   -1.4800    1.4800    4.2200 N   0  0  0  0  0  0  0  0  0  0  0  0
    1.4800   -1.4800    4.2200 N   0  0  0  0  0  0  0  0  0  0  0  0
   -1.4800   -1.4800    4.2200 N   0  0  0  0  0  0  0  0  0  0  0  0
    4.2200    1.4800    1.4800 N   0  0  0  0  0  0  0  0  0  0  0  0
    4.2200   -1.4800    1.4800 N   0  0  0  0  0  0  0  0  0  0  0  0
    4.2200    1.4800   -1.4800 N   0  0  0  0  0  0  0  0  0  0  0  0
    4.2200   -1.4800   -1.4800 N   0  0  0  0  0  0  0  0  0  0  0  0
   -4.2200    1.4800    1.4800 N   0  0  0  0  0  0  0  0  0  0  0  0
   -4.2200   -1.4800    1.4800 N   0  0  0  0  0  0  0  0  0  0  0  0
   -4.2200    1.4800   -1.4800 N   0  0  0  0  0  0  0  0  0  0  0  0
   -4.2200   -1.4800   -1.4800 N   0  0  0  0  0  0  0  0  0  0  0  0
  1  2  4  0  0  0  0
  2  3  1  0  0  0  0
  3  4  1  0  0  0  0
  5  6  1  0  0  0  0
  6  7  1  0  0  0  0
  7  8  4  0  0  0  0
  8  9  1  0  0  0  0
  9 10  1  0  0  0  0
 10 11  1  0  0  0  0
 11 12  1  0  0  0  0
 12 13  1  0  0  0  0
 14 15  1  0  0  0  0
 15 16  4  0  0  0  0
 16 17  1  0  0  0  0
 17 18  1  0  0  0  0
 17 19  1  0  0  0  0
 19 20  4  0  0  0  0
 20 21  4  0  0  0  0
 21 22  4  0  0  0  0
 22 23  4  0  0  0  0
 15 24  4  0  0  0  0
 19 24  4  0  0  0  0
 23 24  4  0  0  0  0
 10 25  1  0  0  0  0
 14 25  1  0  0  0  0
  8 26  1  0  0  0  0
 26 27  1  0  0  0  0
 27 28  1  0  0  0  0
 26 29  1  0  0  0  0
  6 30  1  0  0  0  0
 29 30  1  0  0  0  0
 33 34  1  0  0  0  0
 34 35  1  0  0  0  0
 35 36  1  0  0  0  0
 35 37  1  0  0  0  0
  1 38  1  0  0  0  0
  1 39  1  0  0  0  0
  2 40  1  0  0  0  0
  5 41  1  0  0  0  0
  7 42  1  0  0  0  0
  9 43  1  0  0  0  0
 12 44  1  0  0  0  0
 13 45  1  0  0  0  0
 16 46  1  0  0  0  0
 18 47  1  0  0  0  0
 18 48  1  0  0  0  0
 18 49  1  0  0  0  0
 20 50  1  0  0  0  0
 21 51  1  0  0  0  0
 22 52  1  0  0  0  0
 23 53  1  0  0  0  0
 28 54  1  0  0  0  0
 28 55  1  0  0  0  0
 29 57  1  0  0  0  0
 32 58  1  0  0  0  0
 32 59  1  0  0  0  0
 32 60  1  0  0  0  0
 33 61  1  0  0  0  0
 34 63  1  0  0  0  0
 34 64  1  0  0  0  0
 36 65  1  0  0  0  0
 36 66  1  0  0  0  0
 36 67  1  0  0  0  0
 37 68  1  0  0  0  0
 37 69  1  0  0  0  0
 37 70  1  0  0  0  0
 27 74  1  0  0  0  0
 28 74  1  0  0  0  0
 72 81  1  0  0  0  0
  3 82  1  0  0  0  0
  5 82  1  0  0  0  0
 27 89  1  0  0  0  0
 12101  1  0  0  0  0
 13101  1  0  0  0  0
 30104  1  0  0  0  0
 31104  1  0  0  0  0
  3105  1  0  0  0  0
  5105  1  0  0  0  0
 71107  3  0  0  0  0
 72108  3  0  0  0  0
 73109  3  0  0  0  0
 28110  1  0  0  0  0
 56110  1  0  0  0  0
 74110  2  0  0  0  0
 75111  3  0  0  0  0
 76112  3  0  0  0  0
 77113  3  0  0  0  0
 13114  1  0  0  0  0
 14114  4  0  0  0  0
 78114  2  0  0  0  0
 79115  3  0  0  0  0
 32116  1  0  0  0  0
 80116  3  0  0  0  0
 33117  4  0  0  0  0
 62117  1  0  0  0  0
 81117  2  0  0  0  0
  3118  1  0  0  0  0
  5118  1  0  0  0  0
 82118  2  0  0  0  0
 83119  3  0  0  0  0
 84120  3  0  0  0  0
 85121  3  0  0  0  0
 86122  3  0  0  0  0
 87123  3  0  0  0  0
 88124  3  0  0  0  0
 89125  3  0  0  0  0
 90126  3  0  0  0  0
 91127  3  0  0  0  0
 92128  3  0  0  0  0
 93129  3  0  0  0  0
 94130  3  0  0  0  0
 95131  3  0  0  0  0
 96132  3  0  0  0  0
 97133  3  0  0  0  0
 98134  3  0  0  0  0
 99135  3  0  0  0  0
100136  3  0  0  0  0
 13137  1  0  0  0  0
 14137  1  0  0  0  0
101137  2  0  0  0  0
102138  3  0  0  0  0
 70139  1  0  0  0  0
103139  3  0  0  0  0
 31140  3  0  0  0  0
 32140  1  0  0  0  0
104140  1  0  0  0  0
  2141  1  0  0  0  0
  3141  1  0  0  0  0
105141  2  0  0  0  0
106142  3  0  0  0  0
M  END
