 xtb: 6.7.1pre (5071a88)
          08312622223D

142181  0     0  0            999 V2000
   -4.8613    2.2723    8.1915 C   0  0  0  0  0  0  0  0  0  0  0  0
   -4.7271    1.4871    9.2682 C   0  0  0  0  0  0  0  0  0  0  0  0
   -3.3767    1.1016    9.7739 C   0  0  0  0  0  0  0  0  0  0  0  0
   -2.3618    1.4713    9.1981 O   0  0  0  0  0  0  0  0  0  0  0  0
   -3.4645    0.3255   10.9012 N   0  0  0  0  0  0  0  0  0  0  0  0
   -2.4256   -0.2525   11.6644 C   0  0  0  0  0  0  0  0  0  0  0  0
   -1.0639   -0.1040   11.3930 C   0  0  0  0  0  0  0  0  0  0  0  0
   -0.1001   -0.7122   12.2102 C   0  0  0  0  0  0  0  0  0  0  0  0
    1.2852   -0.5967   11.9980 N   0  0  0  0  0  0  0  0  0  0  0  0
    2.0866    0.0268   11.0530 C   0  0  0  0  0  0  0  0  0  0  0  0
    1.5665    0.7406   10.0479 N   0  0  0  0  0  0  0  0  0  0  0  0
    2.4165    1.3078    9.1779 C   0  0  0  0  0  0  0  0  0  0  0  0
    3.7777    1.1882    9.2692 C   0  0  0  0  0  0  0  0  0  0  0  0
    4.2349    0.4383   10.3296 C   0  0  0  0  0  0  0  0  0  0  0  0
    5.6614    0.2248   10.5546 C   0  0  0  0  0  0  0  0  0  0  0  0
    6.5980    0.1464    9.5387 C   0  0  0  0  0  0  0  0  0  0  0  0
    7.8275   -0.0739   10.1013 N   0  0  0  0  0  0  0  0  0  0  0  0
    9.0583   -0.2226    9.3570 C   0  0  0  0  0  0  0  0  0  0  0  0
    7.7237   -0.1415   11.4734 C   0  0  0  0  0  0  0  0  0  0  0  0
    8.7009   -0.3465   12.4617 C   0  0  0  0  0  0  0  0  0  0  0  0
    8.2923   -0.3693   13.7980 C   0  0  0  0  0  0  0  0  0  0  0  0
    6.9557   -0.1939   14.1392 C   0  0  0  0  0  0  0  0  0  0  0  0
    5.9910    0.0092   13.1470 C   0  0  0  0  0  0  0  0  0  0  0  0
    6.3715    0.0356   11.7868 C   0  0  0  0  0  0  0  0  0  0  0  0
    3.4064   -0.1395   11.2244 N   0  0  0  0  0  0  0  0  0  0  0  0
   -0.5334   -1.4805   13.3202 C   0  0  0  0  0  0  0  0  0  0  0  0
    0.4812   -2.0337   14.0725 O   0  0  0  0  0  0  0  0  0  0  0  0
    0.1067   -2.8728   15.1566 C   0  0  0  0  0  0  0  0  0  0  0  0
   -1.8961   -1.6317   13.5939 C   0  0  0  0  0  0  0  0  0  0  0  0
   -2.8519   -1.0281   12.7680 C   0  0  0  0  0  0  0  0  0  0  0  0
   -4.2497   -1.1470   13.0018 N   0  0  0  0  0  0  0  0  0  0  0  0
   -4.7071   -2.5376   13.0244 C   0  0  0  0  0  0  0  0  0  0  0  0
   -4.6890   -0.3118   14.1410 C   0  0  0  0  0  0  0  0  0  0  0  0
   -6.0985    0.2828   13.8850 C   0  0  0  0  0  0  0  0  0  0  0  0
   -6.2145    1.1494   12.6863 N   0  0  0  0  0  0  0  0  0  0  0  0
   -7.6256    1.4370   12.4149 C   0  0  0  0  0  0  0  0  0  0  0  0
   -5.4838    2.4089   12.8691 C   0  0  0  0  0  0  0  0  0  0  0  0
   -3.9938    2.6500    7.6567 H   0  0  0  0  0  0  0  0  0  0  0  0
   -5.8422    2.5502    7.8238 H   0  0  0  0  0  0  0  0  0  0  0  0
   -5.5985    1.1146    9.7922 H   0  0  0  0  0  0  0  0  0  0  0  0
   -4.3830    0.1204   11.2988 H   0  0  0  0  0  0  0  0  0  0  0  0
   -0.7486    0.4899   10.5441 H   0  0  0  0  0  0  0  0  0  0  0  0
    1.8525   -1.1067   12.6628 H   0  0  0  0  0  0  0  0  0  0  0  0
    1.9479    1.8801    8.3830 H   0  0  0  0  0  0  0  0  0  0  0  0
    4.4331    1.6678    8.5574 H   0  0  0  0  0  0  0  0  0  0  0  0
    6.4875    0.2123    8.4643 H   0  0  0  0  0  0  0  0  0  0  0  0
    8.8541   -0.1282    8.2874 H   0  0  0  0  0  0  0  0  0  0  0  0
    9.4729   -1.2116    9.5680 H   0  0  0  0  0  0  0  0  0  0  0  0
    9.7496    0.5634    9.6715 H   0  0  0  0  0  0  0  0  0  0  0  0
    9.7461   -0.4850   12.2055 H   0  0  0  0  0  0  0  0  0  0  0  0
    9.0302   -0.5267   14.5810 H   0  0  0  0  0  0  0  0  0  0  0  0
    6.6535   -0.2142   15.1829 H   0  0  0  0  0  0  0  0  0  0  0  0
    4.9488    0.1458   13.4228 H   0  0  0  0  0  0  0  0  0  0  0  0
    1.0238   -3.2530   15.6168 H   0  0  0  0  0  0  0  0  0  0  0  0
   -0.4726   -3.7346   14.8092 H   0  0  0  0  0  0  0  0  0  0  0  0
   -0.4387   -2.3090   15.9204 H   0  0  0  0  0  0  0  0  0  0  0  0
   -2.2357   -2.2041   14.4473 H   0  0  0  0  0  0  0  0  0  0  0  0
   -5.8012   -2.5706   12.9990 H   0  0  0  0  0  0  0  0  0  0  0  0
   -4.3770   -3.0672   13.9249 H   0  0  0  0  0  0  0  0  0  0  0  0
   -4.3510   -3.0817   12.1419 H   0  0  0  0  0  0  0  0  0  0  0  0
   -4.7154   -0.9139   15.0586 H   0  0  0  0  0  0  0  0  0  0  0  0
   -3.9866    0.5092   14.3331 H   0  0  0  0  0  0  0  0  0  0  0  0
   -6.7924   -0.5605   13.7747 H   0  0  0  0  0  0  0  0  0  0  0  0
   -6.4170    0.8313   14.7813 H   0  0  0  0  0  0  0  0  0  0  0  0
   -7.7266    2.0517   11.5134 H   0  0  0  0  0  0  0  0  0  0  0  0
   -8.1094    1.9609   13.2472 H   0  0  0  0  0  0  0  0  0  0  0  0
   -8.1768    0.5099   12.2218 H   0  0  0  0  0  0  0  0  0  0  0  0
   -5.8401    2.9694   13.7410 H   0  0  0  0  0  0  0  0  0  0  0  0
   -5.5946    3.0474   11.9853 H   0  0  0  0  0  0  0  0  0  0  0  0
   -4.4101    2.2353   12.9854 H   0  0  0  0  0  0  0  0  0  0  0  0
    3.4592   -1.4546    1.6280 B   0  0  0  0  0  0  0  0  0  0  0  0
    3.4564    1.1299    0.9400 N   0  0  0  0  0  0  0  0  0  0  0  0
    2.5399    2.3625   -1.2610 B   0  0  0  0  0  0  0  0  0  0  0  0
    2.2931   -0.6416   -2.7306 N   0  0  0  0  0  0  0  0  0  0  0  0
    0.6905   -3.5611    2.7027 B   0  0  0  0  0  0  0  0  0  0  0  0
   -2.9397   -2.6548    1.7095 N   0  0  0  0  0  0  0  0  0  0  0  0
   -1.0382    4.0851    1.8312 B   0  0  0  0  0  0  0  0  0  0  0  0
   -0.6193    0.0177   -3.9419 N   0  0  0  0  0  0  0  0  0  0  0  0
   -0.4737    1.4453   -4.0917 B   0  0  0  0  0  0  0  0  0  0  0  0
    1.2096   -3.7868   -1.7394 N   0  0  0  0  0  0  0  0  0  0  0  0
   -3.8445    2.2094   -0.4937 B   0  0  0  0  0  0  0  0  0  0  0  0
   -2.7729    2.7636   -1.2118 N   0  0  0  0  0  0  0  0  0  0  0  0
    1.4057    0.8181   -4.8893 B   0  0  0  0  0  0  0  0  0  0  0  0
   -0.2358    3.3642    2.8335 N   0  0  0  0  0  0  0  0  0  0  0  0
    0.8983   -2.8798   -2.8138 B   0  0  0  0  0  0  0  0  0  0  0  0
   -0.4918    3.7666   -1.0101 N   0  0  0  0  0  0  0  0  0  0  0  0
   -0.8060    2.1823    3.2819 B   0  0  0  0  0  0  0  0  0  0  0  0
    1.6561   -1.2744    3.5036 N   0  0  0  0  0  0  0  0  0  0  0  0
   -0.2485    3.4699   -2.3799 B   0  0  0  0  0  0  0  0  0  0  0  0
    1.3087    0.0689    3.8170 N   0  0  0  0  0  0  0  0  0  0  0  0
   -1.5974   -0.5599   -3.0847 B   0  0  0  0  0  0  0  0  0  0  0  0
   -3.8325    1.7768    0.8316 N   0  0  0  0  0  0  0  0  0  0  0  0
    0.3376    4.4960    1.1839 B   0  0  0  0  0  0  0  0  0  0  0  0
    0.0433   -0.0140    4.4567 N   0  0  0  0  0  0  0  0  0  0  0  0
   -2.7088    2.2268    1.6012 B   0  0  0  0  0  0  0  0  0  0  0  0
    3.7727   -0.1326   -0.7655 N   0  0  0  0  0  0  0  0  0  0  0  0
   -2.2534   -3.6394    1.0085 B   0  0  0  0  0  0  0  0  0  0  0  0
    1.0558    3.7334    2.2357 N   0  0  0  0  0  0  0  0  0  0  0  0
   -1.8256   -0.7775    3.2198 B   0  0  0  0  0  0  0  0  0  0  0  0
   -2.4368   -3.6019   -0.4508 N   0  0  0  0  0  0  0  0  0  0  0  0
    3.0187   -1.0737   -1.5028 B   0  0  0  0  0  0  0  0  0  0  0  0
   -3.1580   -1.2526   -0.3843 N   0  0  0  0  0  0  0  0  0  0  0  0
    2.0347    2.9223    1.5617 B   0  0  0  0  0  0  0  0  0  0  0  0
   -0.5074   -2.9001   -2.4328 N   0  0  0  0  0  0  0  0  0  0  0  0
   -1.6735   -2.1129   -2.4916 B   0  0  0  0  0  0  0  0  0  0  0  0
    0.5901    3.9646   -0.1102 N   0  0  0  0  0  0  0  0  0  0  0  0
    1.0903    2.9596   -3.1825 B   0  0  0  0  0  0  0  0  0  0  0  0
    0.0774   -4.3592    1.7213 N   0  0  0  0  0  0  0  0  0  0  0  0
   -1.7840    3.4524   -0.4082 B   0  0  0  0  0  0  0  0  0  0  0  0
   -2.0135    3.4185    1.0316 N   0  0  0  0  0  0  0  0  0  0  0  0
    1.4659   -4.2121    1.4991 B   0  0  0  0  0  0  0  0  0  0  0  0
   -0.7980    1.0642    4.1946 N   0  0  0  0  0  0  0  0  0  0  0  0
   -2.6662   -2.4021   -1.1753 B   0  0  0  0  0  0  0  0  0  0  0  0
   -1.0744   -4.4843    0.9912 N   0  0  0  0  0  0  0  0  0  0  0  0
   -2.5037    0.4914   -2.1091 B   0  0  0  0  0  0  0  0  0  0  0  0
    2.3527   -3.8873    0.4531 N   0  0  0  0  0  0  0  0  0  0  0  0
    3.9123   -0.2024    0.7259 B   0  0  0  0  0  0  0  0  0  0  0  0
    1.9285    1.9570   -2.4651 N   0  0  0  0  0  0  0  0  0  0  0  0
    1.0012    2.2544   -4.6225 B   0  0  0  0  0  0  0  0  0  0  0  0
   -4.1860    0.8290   -0.3475 N   0  0  0  0  0  0  0  0  0  0  0  0
   -1.3389    2.4537   -3.1149 B   0  0  0  0  0  0  0  0  0  0  0  0
   -2.3596    1.9326   -2.3058 N   0  0  0  0  0  0  0  0  0  0  0  0
    3.0731   -2.6455    0.6011 B   0  0  0  0  0  0  0  0  0  0  0  0
    2.3352   -3.6737   -0.9709 N   0  0  0  0  0  0  0  0  0  0  0  0
    2.2179    0.5458    2.8084 B   0  0  0  0  0  0  0  0  0  0  0  0
   -2.0264    0.6119    3.6015 N   0  0  0  0  0  0  0  0  0  0  0  0
   -1.1017   -4.1838   -0.4410 B   0  0  0  0  0  0  0  0  0  0  0  0
   -3.2181    0.0417   -0.9586 N   0  0  0  0  0  0  0  0  0  0  0  0
    3.4478    1.2586   -0.5141 B   0  0  0  0  0  0  0  0  0  0  0  0
    2.5821    1.6330    1.9365 N   0  0  0  0  0  0  0  0  0  0  0  0
    1.4721   -1.5550   -3.5156 B   0  0  0  0  0  0  0  0  0  0  0  0
   -2.1026    1.7542    2.7608 N   0  0  0  0  0  0  0  0  0  0  0  0
    2.0408    0.7119   -3.2115 B   0  0  0  0  0  0  0  0  0  0  0  0
   -2.7209   -1.3417    2.3206 N   0  0  0  0  0  0  0  0  0  0  0  0
    0.6586   -0.5389   -4.4869 B   0  0  0  0  0  0  0  0  0  0  0  0
   -0.1687   -3.7594   -1.3565 N   0  0  0  0  0  0  0  0  0  0  0  0
    0.4856   -2.1056    3.4338 B   0  0  0  0  0  0  0  0  0  0  0  0
   -0.5873   -1.2050    3.8245 N   0  0  0  0  0  0  0  0  0  0  0  0
   -3.2244   -1.4514    1.0003 B   0  0  0  0  0  0  0  0  0  0  0  0
    2.6713   -0.8555    2.6211 N   0  0  0  0  0  0  0  0  0  0  0  0
    1.8786    3.3393   -0.1064 B   0  0  0  0  0  0  0  0  0  0  0  0
    2.8769   -2.3318   -0.7936 N   0  0  0  0  0  0  0  0  0  0  0  0
  1  2  2  0  0  0  0
  2  3  1  0  0  0  0
  3  4  2  0  0  0  0
  3  5  1  0  0  0  0
  5  6  1  0  0  0  0
  6  7  4  0  0  0  0
  7  8  4  0  0  0  0
  8  9  1  0  0  0  0
  9 10  1  0  0  0  0
 10 11  4  0  0  0  0
 11 12  4  0  0  0  0
 12 13  4  0  0  0  0
 13 14  4  0  0  0  0
 14 15  1  0  0  0  0
 15 16  2  0  0  0  0
 16 17  4  0  0  0  0
 17 18  1  0  0  0  0
 17 19  1  0  0  0  0
 19 20  4  0  0  0  0
 20 21  4  0  0  0  0
 21 22  4  0  0  0  0
 22 23  4  0  0  0  0
 15 24  1  0  0  0  0
 19 24  4  0  0  0  0
 23 24  4  0  0  0  0
 10 25  4  0  0  0  0
 14 25  4  0  0  0  0
  8 26  4  0  0  0  0
 26 27  1  0  0  0  0
 27 28  1  0  0  0  0
 26 29  4  0  0  0  0
  6 30  4  0  0  0  0
 29 30  4  0  0  0  0
 30 31  1  0  0  0  0
 31 32  1  0  0  0  0
 31 33  1  0  0  0  0
 33 34  1  0  0  0  0
 34 35  1  0  0  0  0
 35 36  1  0  0  0  0
 35 37  1  0  0  0  0
  1 38  1  0  0  0  0
  1 39  1  0  0  0  0
  2 40  1  0  0  0  0
  5 41  1  0  0  0  0
  7 42  1  0  0  0  0
  9 43  1  0  0  0  0
 12 44  1  0  0  0  0
 13 45  1  0  0  0  0
 16 46  1  0  0  0  0
 18 47  1  0  0  0  0
 18 48  1  0  0  0  0
 18 49  1  0  0  0  0
 20 50  1  0  0  0  0
 21 51  1  0  0  0  0
 22 52  1  0  0  0  0
 23 53  1  0  0  0  0
 28 54  1  0  0  0  0
 28 55  1  0  0  0  0
 28 56  1  0  0  0  0
 29 57  1  0  0  0  0
 32 58  1  0  0  0  0
 32 59  1  0  0  0  0
 32 60  1  0  0  0  0
 33 61  1  0  0  0  0
 33 62  1  0  0  0  0
 34 63  1  0  0  0  0
 34 64  1  0  0  0  0
 36 65  1  0  0  0  0
 36 66  1  0  0  0  0
 36 67  1  0  0  0  0
 37 68  1  0  0  0  0
 37 69  1  0  0  0  0
 37 70  1  0  0  0  0
 78 79  1  0  0  0  0
 81 82  1  0  0  0  0
 77 84  1  0  0  0  0
 80 85  1  0  0  0  0
 84 87  1  0  0  0  0
 86 89  1  0  0  0  0
 88 90  1  0  0  0  0
 78 91  1  0  0  0  0
 81 92  1  0  0  0  0
 77 93  1  0  0  0  0
 90 94  1  0  0  0  0
 92 95  1  0  0  0  0
 76 97  1  0  0  0  0
 84 98  1  0  0  0  0
 93 98  1  0  0  0  0
 97100  1  0  0  0  0
 74101  1  0  0  0  0
 96101  1  0  0  0  0
 98103  1  0  0  0  0
 85104  1  0  0  0  0
 91105  1  0  0  0  0
104105  1  0  0  0  0
 86106  1  0  0  0  0
 93106  1  0  0  0  0
 89107  1  0  0  0  0
 75108  1  0  0  0  0
 82109  1  0  0  0  0
 86109  1  0  0  0  0
 77110  1  0  0  0  0
 95110  1  0  0  0  0
109110  1  0  0  0  0
 75111  1  0  0  0  0
108111  1  0  0  0  0
 87112  1  0  0  0  0
 94112  1  0  0  0  0
100113  1  0  0  0  0
102113  1  0  0  0  0
105113  1  0  0  0  0
 97114  1  0  0  0  0
108114  1  0  0  0  0
 91115  1  0  0  0  0
111116  1  0  0  0  0
 71117  1  0  0  0  0
 72117  1  0  0  0  0
 96117  1  0  0  0  0
 73118  1  0  0  0  0
107118  1  0  0  0  0
 79119  1  0  0  0  0
 83119  1  0  0  0  0
107119  1  0  0  0  0
 81120  1  0  0  0  0
 92120  1  0  0  0  0
 79121  1  0  0  0  0
 89121  1  0  0  0  0
 82122  1  0  0  0  0
115122  1  0  0  0  0
121122  1  0  0  0  0
 71123  1  0  0  0  0
116123  1  0  0  0  0
 80124  1  0  0  0  0
116124  1  0  0  0  0
 90125  1  0  0  0  0
 99126  1  0  0  0  0
112126  1  0  0  0  0
100127  1  0  0  0  0
114127  1  0  0  0  0
102128  1  0  0  0  0
115128  1  0  0  0  0
120128  1  0  0  0  0
 72129  1  0  0  0  0
 73129  1  0  0  0  0
 96129  1  0  0  0  0
 72130  1  0  0  0  0
103130  1  0  0  0  0
125130  1  0  0  0  0
 74131  1  0  0  0  0
 85131  1  0  0  0  0
 87132  1  0  0  0  0
 95132  1  0  0  0  0
126132  1  0  0  0  0
 74133  1  0  0  0  0
 83133  1  0  0  0  0
118133  1  0  0  0  0
 76134  1  0  0  0  0
 99134  1  0  0  0  0
 78135  1  0  0  0  0
 83135  1  0  0  0  0
131135  1  0  0  0  0
 80136  1  0  0  0  0
104136  1  0  0  0  0
127136  1  0  0  0  0
 75137  1  0  0  0  0
 88137  1  0  0  0  0
 94138  1  0  0  0  0
 99138  1  0  0  0  0
137138  1  0  0  0  0
 76139  1  0  0  0  0
102139  1  0  0  0  0
134139  1  0  0  0  0
 71140  1  0  0  0  0
 88140  1  0  0  0  0
125140  1  0  0  0  0
 73141  1  0  0  0  0
103141  1  0  0  0  0
106141  1  0  0  0  0
101142  1  0  0  0  0
123142  1  0  0  0  0
124142  1  0  0  0  0
M  END
