 xtb: 6.7.1pre (5071a88)
          08312618353D

122110  0     0  0            999 V2000
    1.0679    2.2552   -1.6970 N   0  0  0  0  0  0  0  0  0  0  0  0
    1.4568    0.8388   -1.6973 C   0  0  0  0  0  0  0  0  0  0  0  0
    1.4500    0.1809   -0.2921 C   0  0  0  0  0  0  0  0  0  0  0  0
    2.4298    0.7074    0.7560 C   0  0  0  0  0  0  0  0  0  0  0  0
    3.5502    1.4884    0.4296 C   0  0  0  0  0  0  0  0  0  0  0  0
    4.4194    1.9474    1.4245 C   0  0  0  0  0  0  0  0  0  0  0  0
    4.1779    1.6316    2.7583 C   0  0  0  0  0  0  0  0  0  0  0  0
    5.2505    2.1962    3.9797 Cl  0  0  0  0  0  0  0  0  0  0  0  0
    3.0730    0.8629    3.1092 C   0  0  0  0  0  0  0  0  0  0  0  0
    2.2044    0.4064    2.1150 C   0  0  0  0  0  0  0  0  0  0  0  0
    1.7204   -1.3099   -0.3945 C   0  0  0  0  0  0  0  0  0  0  0  0
    2.9538   -1.9075   -0.6281 C   0  0  0  0  0  0  0  0  0  0  0  0
    2.7907   -3.2638   -0.6302 N   0  0  0  0  0  0  0  0  0  0  0  0
    1.4760   -3.5735   -0.4426 C   0  0  0  0  0  0  0  0  0  0  0  0
    1.0128   -4.8360   -0.4118 N   0  0  0  0  0  0  0  0  0  0  0  0
   -0.3196   -4.9084   -0.2248 C   0  0  0  0  0  0  0  0  0  0  0  0
   -1.1700   -3.8246   -0.0829 C   0  0  0  0  0  0  0  0  0  0  0  0
   -0.6438   -2.5243   -0.1262 C   0  0  0  0  0  0  0  0  0  0  0  0
   -1.5182   -1.3626   -0.0091 C   0  0  0  0  0  0  0  0  0  0  0  0
   -2.0099   -0.7184   -1.1497 C   0  0  0  0  0  0  0  0  0  0  0  0
   -2.8355    0.4071   -1.0373 C   0  0  0  0  0  0  0  0  0  0  0  0
   -3.2090    0.9306    0.2124 C   0  0  0  0  0  0  0  0  0  0  0  0
   -4.0932    2.1525    0.3826 C   0  0  0  0  0  0  0  0  0  0  0  0
   -5.2187    2.4487   -0.5786 C   0  0  0  0  0  0  0  0  0  0  0  0
   -3.9977    3.3235   -0.5656 C   0  0  0  0  0  0  0  0  0  0  0  0
   -2.7185    0.2596    1.3466 C   0  0  0  0  0  0  0  0  0  0  0  0
   -1.8935   -0.8672    1.2434 C   0  0  0  0  0  0  0  0  0  0  0  0
    0.7568   -2.3866   -0.3055 C   0  0  0  0  0  0  0  0  0  0  0  0
    0.1600    2.3537   -1.2408 H   0  0  0  0  0  0  0  0  0  0  0  0
    0.9426    2.5696   -2.6579 H   0  0  0  0  0  0  0  0  0  0  0  0
    0.7540    0.3005   -2.3455 H   0  0  0  0  0  0  0  0  0  0  0  0
    2.4409    0.7445   -2.1707 H   0  0  0  0  0  0  0  0  0  0  0  0
    0.4554    0.3529    0.1283 H   0  0  0  0  0  0  0  0  0  0  0  0
    3.7599    1.7603   -0.6018 H   0  0  0  0  0  0  0  0  0  0  0  0
    5.2780    2.5532    1.1486 H   0  0  0  0  0  0  0  0  0  0  0  0
    2.8807    0.6140    4.1488 H   0  0  0  0  0  0  0  0  0  0  0  0
    1.3452   -0.1971    2.4022 H   0  0  0  0  0  0  0  0  0  0  0  0
    3.9362   -1.4744   -0.7666 H   0  0  0  0  0  0  0  0  0  0  0  0
    3.5138   -3.9567   -0.7550 H   0  0  0  0  0  0  0  0  0  0  0  0
   -0.7168   -5.9204   -0.1940 H   0  0  0  0  0  0  0  0  0  0  0  0
   -2.2348   -3.9871    0.0536 H   0  0  0  0  0  0  0  0  0  0  0  0
   -1.7469   -1.0862   -2.1397 H   0  0  0  0  0  0  0  0  0  0  0  0
   -3.1900    0.8778   -1.9513 H   0  0  0  0  0  0  0  0  0  0  0  0
   -4.3002    2.4242    1.4184 H   0  0  0  0  0  0  0  0  0  0  0  0
   -6.1375    2.8530   -0.1675 H   0  0  0  0  0  0  0  0  0  0  0  0
   -5.3769    1.7984   -1.4303 H   0  0  0  0  0  0  0  0  0  0  0  0
   -4.0904    4.3192   -0.1453 H   0  0  0  0  0  0  0  0  0  0  0  0
   -3.3207    3.2721   -1.4096 H   0  0  0  0  0  0  0  0  0  0  0  0
   -2.9805    0.6216    2.3393 H   0  0  0  0  0  0  0  0  0  0  0  0
   -1.5350   -1.3476    2.1515 H   0  0  0  0  0  0  0  0  0  0  0  0
    2.1012    0.0000    3.3450 B   0  0  0  0  0  0  0  0  0  0  0  0
   -2.1012    0.0000    3.3450 B   0  0  0  0  0  0  0  0  0  0  0  0
    0.0000    2.1012    3.3450 B   0  0  0  0  0  0  0  0  0  0  0  0
    0.0000   -2.1012    3.3450 B   0  0  0  0  0  0  0  0  0  0  0  0
    3.3450    2.1012    0.0000 B   0  0  0  0  0  0  0  0  0  0  0  0
    3.3450   -2.1012    0.0000 B   0  0  0  0  0  0  0  0  0  0  0  0
    3.3450    0.0000    2.1012 B   0  0  0  0  0  0  0  0  0  0  0  0
    3.3450    0.0000   -2.1012 B   0  0  0  0  0  0  0  0  0  0  0  0
   -3.3450    2.1012    0.0000 B   0  0  0  0  0  0  0  0  0  0  0  0
   -3.3450   -2.1012    0.0000 B   0  0  0  0  0  0  0  0  0  0  0  0
   -3.3450    0.0000    2.1012 B   0  0  0  0  0  0  0  0  0  0  0  0
   -3.3450    0.0000   -2.1012 B   0  0  0  0  0  0  0  0  0  0  0  0
    2.1012    0.0000   -3.3450 B   0  0  0  0  0  0  0  0  0  0  0  0
   -2.1012    0.0000   -3.3450 B   0  0  0  0  0  0  0  0  0  0  0  0
    0.0000    2.1012   -3.3450 B   0  0  0  0  0  0  0  0  0  0  0  0
    0.0000   -2.1012   -3.3450 B   0  0  0  0  0  0  0  0  0  0  0  0
    0.0000    3.3450    2.1012 B   0  0  0  0  0  0  0  0  0  0  0  0
    0.0000    3.3450   -2.1012 B   0  0  0  0  0  0  0  0  0  0  0  0
    0.0000   -3.3450    2.1012 B   0  0  0  0  0  0  0  0  0  0  0  0
    0.0000   -3.3450   -2.1012 B   0  0  0  0  0  0  0  0  0  0  0  0
    2.1012    3.3450    0.0000 B   0  0  0  0  0  0  0  0  0  0  0  0
   -2.1012    3.3450    0.0000 B   0  0  0  0  0  0  0  0  0  0  0  0
    2.1012   -3.3450    0.0000 B   0  0  0  0  0  0  0  0  0  0  0  0
   -2.1012   -3.3450    0.0000 B   0  0  0  0  0  0  0  0  0  0  0  0
    1.4800    1.4800    3.5800 B   0  0  0  0  0  0  0  0  0  0  0  0
   -1.4800    1.4800    3.5800 B   0  0  0  0  0  0  0  0  0  0  0  0
    1.4800   -1.4800    3.5800 B   0  0  0  0  0  0  0  0  0  0  0  0
   -1.4800   -1.4800    3.5800 B   0  0  0  0  0  0  0  0  0  0  0  0
    3.5800    1.4800    1.4800 B   0  0  0  0  0  0  0  0  0  0  0  0
    3.5800   -1.4800    1.4800 B   0  0  0  0  0  0  0  0  0  0  0  0
    3.5800    1.4800   -1.4800 B   0  0  0  0  0  0  0  0  0  0  0  0
    3.5800   -1.4800   -1.4800 B   0  0  0  0  0  0  0  0  0  0  0  0
   -3.5800    1.4800    1.4800 B   0  0  0  0  0  0  0  0  0  0  0  0
   -3.5800   -1.4800    1.4800 B   0  0  0  0  0  0  0  0  0  0  0  0
   -3.5800    1.4800   -1.4800 B   0  0  0  0  0  0  0  0  0  0  0  0
   -3.5800   -1.4800   -1.4800 B   0  0  0  0  0  0  0  0  0  0  0  0
    2.1012    0.0000    3.9200 N   0  0  0  0  0  0  0  0  0  0  0  0
   -2.1012    0.0000    3.9200 N   0  0  0  0  0  0  0  0  0  0  0  0
    0.0000    2.1012    3.9200 N   0  0  0  0  0  0  0  0  0  0  0  0
    0.0000   -2.1012    3.9200 N   0  0  0  0  0  0  0  0  0  0  0  0
    3.9200    2.1012    0.0000 N   0  0  0  0  0  0  0  0  0  0  0  0
    3.9200   -2.1012    0.0000 N   0  0  0  0  0  0  0  0  0  0  0  0
    3.9200    0.0000    2.1012 N   0  0  0  0  0  0  0  0  0  0  0  0
    3.9200    0.0000   -2.1012 N   0  0  0  0  0  0  0  0  0  0  0  0
   -3.9200    2.1012    0.0000 N   0  0  0  0  0  0  0  0  0  0  0  0
   -3.9200   -2.1012    0.0000 N   0  0  0  0  0  0  0  0  0  0  0  0
   -3.9200    0.0000    2.1012 N   0  0  0  0  0  0  0  0  0  0  0  0
   -3.9200    0.0000   -2.1012 N   0  0  0  0  0  0  0  0  0  0  0  0
    2.1012    0.0000   -3.9200 N   0  0  0  0  0  0  0  0  0  0  0  0
   -2.1012    0.0000   -3.9200 N   0  0  0  0  0  0  0  0  0  0  0  0
    0.0000    2.1012   -3.9200 N   0  0  0  0  0  0  0  0  0  0  0  0
    0.0000   -2.1012   -3.9200 N   0  0  0  0  0  0  0  0  0  0  0  0
    0.0000    3.9200    2.1012 N   0  0  0  0  0  0  0  0  0  0  0  0
    0.0000    3.9200   -2.1012 N   0  0  0  0  0  0  0  0  0  0  0  0
    0.0000   -3.9200    2.1012 N   0  0  0  0  0  0  0  0  0  0  0  0
    0.0000   -3.9200   -2.1012 N   0  0  0  0  0  0  0  0  0  0  0  0
    2.1012    3.9200    0.0000 N   0  0  0  0  0  0  0  0  0  0  0  0
   -2.1012    3.9200    0.0000 N   0  0  0  0  0  0  0  0  0  0  0  0
    2.1012   -3.9200    0.0000 N   0  0  0  0  0  0  0  0  0  0  0  0
   -2.1012   -3.9200    0.0000 N   0  0  0  0  0  0  0  0  0  0  0  0
    1.4800    1.4800    4.2200 N   0  0  0  0  0  0  0  0  0  0  0  0
   -1.4800    1.4800    4.2200 N   0  0  0  0  0  0  0  0  0  0  0  0
    1.4800   -1.4800    4.2200 N   0  0  0  0  0  0  0  0  0  0  0  0
   -1.4800   -1.4800    4.2200 N   0  0  0  0  0  0  0  0  0  0  0  0
    4.2200    1.4800    1.4800 N   0  0  0  0  0  0  0  0  0  0  0  0
    4.2200   -1.4800    1.4800 N   0  0  0  0  0  0  0  0  0  0  0  0
    4.2200    1.4800   -1.4800 N   0  0  0  0  0  0  0  0  0  0  0  0
    4.2200   -1.4800   -1.4800 N   0  0  0  0  0  0  0  0  0  0  0  0
   -4.2200    1.4800    1.4800 N   0  0  0  0  0  0  0  0  0  0  0  0
   -4.2200   -1.4800    1.4800 N   0  0  0  0  0  0  0  0  0  0  0  0
   -4.2200    1.4800   -1.4800 N   0  0  0  0  0  0  0  0  0  0  0  0
   -4.2200   -1.4800   -1.4800 N   0  0  0  0  0  0  0  0  0  0  0  0
  1  2  1  0  0  0  0
  2  3  1  0  0  0  0
  3  4  1  0  0  0  0
  4  5  1  0  0  0  0
  7  8  1  0  0  0  0
  7  9  1  0  0  0  0
  4 10  1  0  0  0  0
  9 10  1  0  0  0  0
  3 11  1  0  0  0  0
 11 12  1  0  0  0  0
 12 13  1  0  0  0  0
 14 15  1  0  0  0  0
 15 16  1  0  0  0  0
 16 17  4  0  0  0  0
 17 18  1  0  0  0  0
 18 19  1  0  0  0  0
 19 20  1  0  0  0  0
 20 21  1  0  0  0  0
 21 22  1  0  0  0  0
 24 25  1  0  0  0  0
 22 26  1  0  0  0  0
 19 27  1  0  0  0  0
 26 27  1  0  0  0  0
 11 28  1  0  0  0  0
 14 28  1  0  0  0  0
 18 28  1  0  0  0  0
  1 29  1  0  0  0  0
  1 30  1  0  0  0  0
  2 31  1  0  0  0  0
  2 32  1  0  0  0  0
  3 33  1  0  0  0  0
  6 35  1  0  0  0  0
  9 36  1  0  0  0  0
 10 37  1  0  0  0  0
 13 39  1  0  0  0  0
 16 40  1  0  0  0  0
 20 42  1  0  0  0  0
 24 45  1  0  0  0  0
 24 46  1  0  0  0  0
 25 47  1  0  0  0  0
 25 48  1  0  0  0  0
 27 50  1  0  0  0  0
 10 51  1  0  0  0  0
  5 55  1  0  0  0  0
 12 56  1  0  0  0  0
 10 57  1  0  0  0  0
 22 59  1  0  0  0  0
 26 61  1  0  0  0  0
 21 62  1  0  0  0  0
 55 71  1  0  0  0  0
 59 72  1  0  0  0  0
 13 73  1  0  0  0  0
 14 73  1  0  0  0  0
 19 74  1  0  0  0  0
  5 79  1  0  0  0  0
 12 82  1  0  0  0  0
 26 83  1  0  0  0  0
 27 84  1  0  0  0  0
 21 85  1  0  0  0  0
 20 86  1  0  0  0  0
 51 87  3  0  0  0  0
 52 88  3  0  0  0  0
 53 89  3  0  0  0  0
 54 90  3  0  0  0  0
  5 91  1  0  0  0  0
 55 91  2  0  0  0  0
 12 92  1  0  0  0  0
 56 92  2  0  0  0  0
  9 93  1  0  0  0  0
 57 93  3  0  0  0  0
 58 94  3  0  0  0  0
 23 95  3  0  0  0  0
 59 95  1  0  0  0  0
 60 96  3  0  0  0  0
 26 97  1  0  0  0  0
 61 97  3  0  0  0  0
 21 98  1  0  0  0  0
 62 98  3  0  0  0  0
 63 99  3  0  0  0  0
 64100  3  0  0  0  0
 65101  3  0  0  0  0
 66102  3  0  0  0  0
 67103  3  0  0  0  0
 68104  3  0  0  0  0
 69105  3  0  0  0  0
 70106  3  0  0  0  0
 71107  3  0  0  0  0
 72108  3  0  0  0  0
 13109  1  0  0  0  0
 14109  1  0  0  0  0
 73109  2  0  0  0  0
 17110  1  0  0  0  0
 41110  1  0  0  0  0
 74110  2  0  0  0  0
 75111  3  0  0  0  0
 76112  3  0  0  0  0
 77113  3  0  0  0  0
 78114  3  0  0  0  0
  6115  3  0  0  0  0
 79115  1  0  0  0  0
 80116  3  0  0  0  0
 81117  3  0  0  0  0
 38118  1  0  0  0  0
 82118  3  0  0  0  0
 23119  1  0  0  0  0
 44119  1  0  0  0  0
 83119  2  0  0  0  0
 84120  3  0  0  0  0
 85121  3  0  0  0  0
 86122  3  0  0  0  0
M  END
