 xtb: 6.7.1pre (5071a88)
          08312622223D

122161  0     0  0            999 V2000
   -0.6840   -1.6931    8.5944 N   0  0  0  0  0  0  0  0  0  0  0  0
   -2.0494   -1.2135    8.8135 C   0  0  0  0  0  0  0  0  0  0  0  0
   -2.4320   -0.7953   10.2631 C   0  0  0  0  0  0  0  0  0  0  0  0
   -1.9250    0.5089   10.8494 C   0  0  0  0  0  0  0  0  0  0  0  0
   -1.0768    1.3622   10.1245 C   0  0  0  0  0  0  0  0  0  0  0  0
   -0.7266    2.6236   10.6171 C   0  0  0  0  0  0  0  0  0  0  0  0
   -1.2150    3.0468   11.8486 C   0  0  0  0  0  0  0  0  0  0  0  0
   -0.7533    4.5832   12.4699 Cl  0  0  0  0  0  0  0  0  0  0  0  0
   -2.0635    2.2273   12.5856 C   0  0  0  0  0  0  0  0  0  0  0  0
   -2.4228    0.9728   12.0844 C   0  0  0  0  0  0  0  0  0  0  0  0
   -2.3073   -1.9330   11.2646 C   0  0  0  0  0  0  0  0  0  0  0  0
   -3.4076   -2.7492   11.5229 C   0  0  0  0  0  0  0  0  0  0  0  0
   -3.0341   -3.7487   12.3640 N   0  0  0  0  0  0  0  0  0  0  0  0
   -1.7148   -3.6233   12.6683 C   0  0  0  0  0  0  0  0  0  0  0  0
   -1.0901   -4.5134   13.4590 N   0  0  0  0  0  0  0  0  0  0  0  0
    0.2030   -4.2305   13.6669 C   0  0  0  0  0  0  0  0  0  0  0  0
    0.8572   -3.1293   13.1544 C   0  0  0  0  0  0  0  0  0  0  0  0
    0.1673   -2.2077   12.3368 C   0  0  0  0  0  0  0  0  0  0  0  0
    0.8990   -1.0144   11.9176 C   0  0  0  0  0  0  0  0  0  0  0  0
    0.9992    0.0841   12.7867 C   0  0  0  0  0  0  0  0  0  0  0  0
    1.8156    1.1814   12.4844 C   0  0  0  0  0  0  0  0  0  0  0  0
    2.5462    1.2012   11.2987 C   0  0  0  0  0  0  0  0  0  0  0  0
    3.3613    2.2116   10.8717 O   0  0  0  0  0  0  0  0  0  0  0  0
    3.3795    3.4077   11.6592 C   0  0  0  0  0  0  0  0  0  0  0  0
    4.2573    4.4621   11.0041 C   0  0  0  0  0  0  0  0  0  0  0  0
    5.5360    4.0444   10.8747 F   0  0  0  0  0  0  0  0  0  0  0  0
    3.8024    4.8065    9.7791 F   0  0  0  0  0  0  0  0  0  0  0  0
    4.2783    5.5892   11.7565 F   0  0  0  0  0  0  0  0  0  0  0  0
    2.4728    0.1051   10.4382 C   0  0  0  0  0  0  0  0  0  0  0  0
    1.6688   -0.9967   10.7499 C   0  0  0  0  0  0  0  0  0  0  0  0
   -1.2017   -2.4754   12.0460 C   0  0  0  0  0  0  0  0  0  0  0  0
   -0.5046   -2.4641    9.2393 H   0  0  0  0  0  0  0  0  0  0  0  0
   -0.6102   -2.0845    7.6567 H   0  0  0  0  0  0  0  0  0  0  0  0
   -2.2381   -0.3801    8.1269 H   0  0  0  0  0  0  0  0  0  0  0  0
   -2.7243   -2.0225    8.5044 H   0  0  0  0  0  0  0  0  0  0  0  0
   -3.5141   -0.5963   10.1696 H   0  0  0  0  0  0  0  0  0  0  0  0
   -0.6637    1.0559    9.1657 H   0  0  0  0  0  0  0  0  0  0  0  0
   -0.0599    3.2557   10.0373 H   0  0  0  0  0  0  0  0  0  0  0  0
   -2.4541    2.5556   13.5444 H   0  0  0  0  0  0  0  0  0  0  0  0
   -3.1073    0.3559   12.6645 H   0  0  0  0  0  0  0  0  0  0  0  0
   -4.4221   -2.7036   11.1475 H   0  0  0  0  0  0  0  0  0  0  0  0
   -3.6140   -4.4985   12.7110 H   0  0  0  0  0  0  0  0  0  0  0  0
    0.7316   -4.9384   14.2998 H   0  0  0  0  0  0  0  0  0  0  0  0
    1.9034   -2.9684   13.4012 H   0  0  0  0  0  0  0  0  0  0  0  0
    0.4389    0.0859   13.7200 H   0  0  0  0  0  0  0  0  0  0  0  0
    1.8433    1.9992   13.1959 H   0  0  0  0  0  0  0  0  0  0  0  0
    2.3650    3.8113   11.7509 H   0  0  0  0  0  0  0  0  0  0  0  0
    3.7820    3.1879   12.6547 H   0  0  0  0  0  0  0  0  0  0  0  0
    3.0476    0.1015    9.5155 H   0  0  0  0  0  0  0  0  0  0  0  0
    1.6608   -1.8473   10.0736 H   0  0  0  0  0  0  0  0  0  0  0  0
    3.4592   -1.4546    1.6280 B   0  0  0  0  0  0  0  0  0  0  0  0
    3.4564    1.1299    0.9400 N   0  0  0  0  0  0  0  0  0  0  0  0
    2.5399    2.3625   -1.2610 B   0  0  0  0  0  0  0  0  0  0  0  0
    2.2931   -0.6416   -2.7306 N   0  0  0  0  0  0  0  0  0  0  0  0
    0.6905   -3.5611    2.7027 B   0  0  0  0  0  0  0  0  0  0  0  0
   -2.9397   -2.6548    1.7095 N   0  0  0  0  0  0  0  0  0  0  0  0
   -1.0382    4.0851    1.8312 B   0  0  0  0  0  0  0  0  0  0  0  0
   -0.6193    0.0177   -3.9419 N   0  0  0  0  0  0  0  0  0  0  0  0
   -0.4737    1.4453   -4.0917 B   0  0  0  0  0  0  0  0  0  0  0  0
    1.2096   -3.7868   -1.7394 N   0  0  0  0  0  0  0  0  0  0  0  0
   -3.8445    2.2094   -0.4937 B   0  0  0  0  0  0  0  0  0  0  0  0
   -2.7729    2.7636   -1.2118 N   0  0  0  0  0  0  0  0  0  0  0  0
    1.4057    0.8181   -4.8893 B   0  0  0  0  0  0  0  0  0  0  0  0
   -0.2358    3.3642    2.8335 N   0  0  0  0  0  0  0  0  0  0  0  0
    0.8983   -2.8798   -2.8138 B   0  0  0  0  0  0  0  0  0  0  0  0
   -0.4918    3.7666   -1.0101 N   0  0  0  0  0  0  0  0  0  0  0  0
   -0.8060    2.1823    3.2819 B   0  0  0  0  0  0  0  0  0  0  0  0
    1.6561   -1.2744    3.5036 N   0  0  0  0  0  0  0  0  0  0  0  0
   -0.2485    3.4699   -2.3799 B   0  0  0  0  0  0  0  0  0  0  0  0
    1.3087    0.0689    3.8170 N   0  0  0  0  0  0  0  0  0  0  0  0
   -1.5974   -0.5599   -3.0847 B   0  0  0  0  0  0  0  0  0  0  0  0
   -3.8325    1.7768    0.8316 N   0  0  0  0  0  0  0  0  0  0  0  0
    0.3376    4.4960    1.1839 B   0  0  0  0  0  0  0  0  0  0  0  0
    0.0433   -0.0140    4.4567 N   0  0  0  0  0  0  0  0  0  0  0  0
   -2.7088    2.2268    1.6012 B   0  0  0  0  0  0  0  0  0  0  0  0
    3.7727   -0.1326   -0.7655 N   0  0  0  0  0  0  0  0  0  0  0  0
   -2.2534   -3.6394    1.0085 B   0  0  0  0  0  0  0  0  0  0  0  0
    1.0558    3.7334    2.2357 N   0  0  0  0  0  0  0  0  0  0  0  0
   -1.8256   -0.7775    3.2198 B   0  0  0  0  0  0  0  0  0  0  0  0
   -2.4368   -3.6019   -0.4508 N   0  0  0  0  0  0  0  0  0  0  0  0
    3.0187   -1.0737   -1.5028 B   0  0  0  0  0  0  0  0  0  0  0  0
   -3.1580   -1.2526   -0.3843 N   0  0  0  0  0  0  0  0  0  0  0  0
    2.0347    2.9223    1.5617 B   0  0  0  0  0  0  0  0  0  0  0  0
   -0.5074   -2.9001   -2.4328 N   0  0  0  0  0  0  0  0  0  0  0  0
   -1.6735   -2.1129   -2.4916 B   0  0  0  0  0  0  0  0  0  0  0  0
    0.5901    3.9646   -0.1102 N   0  0  0  0  0  0  0  0  0  0  0  0
    1.0903    2.9596   -3.1825 B   0  0  0  0  0  0  0  0  0  0  0  0
    0.0774   -4.3592    1.7213 N   0  0  0  0  0  0  0  0  0  0  0  0
   -1.7840    3.4524   -0.4082 B   0  0  0  0  0  0  0  0  0  0  0  0
   -2.0135    3.4185    1.0316 N   0  0  0  0  0  0  0  0  0  0  0  0
    1.4659   -4.2121    1.4991 B   0  0  0  0  0  0  0  0  0  0  0  0
   -0.7980    1.0642    4.1946 N   0  0  0  0  0  0  0  0  0  0  0  0
   -2.6662   -2.4021   -1.1753 B   0  0  0  0  0  0  0  0  0  0  0  0
   -1.0744   -4.4843    0.9912 N   0  0  0  0  0  0  0  0  0  0  0  0
   -2.5037    0.4914   -2.1091 B   0  0  0  0  0  0  0  0  0  0  0  0
    2.3527   -3.8873    0.4531 N   0  0  0  0  0  0  0  0  0  0  0  0
    3.9123   -0.2024    0.7259 B   0  0  0  0  0  0  0  0  0  0  0  0
    1.9285    1.9570   -2.4651 N   0  0  0  0  0  0  0  0  0  0  0  0
    1.0012    2.2544   -4.6225 B   0  0  0  0  0  0  0  0  0  0  0  0
   -4.1860    0.8290   -0.3475 N   0  0  0  0  0  0  0  0  0  0  0  0
   -1.3389    2.4537   -3.1149 B   0  0  0  0  0  0  0  0  0  0  0  0
   -2.3596    1.9326   -2.3058 N   0  0  0  0  0  0  0  0  0  0  0  0
    3.0731   -2.6455    0.6011 B   0  0  0  0  0  0  0  0  0  0  0  0
    2.3352   -3.6737   -0.9709 N   0  0  0  0  0  0  0  0  0  0  0  0
    2.2179    0.5458    2.8084 B   0  0  0  0  0  0  0  0  0  0  0  0
   -2.0264    0.6119    3.6015 N   0  0  0  0  0  0  0  0  0  0  0  0
   -1.1017   -4.1838   -0.4410 B   0  0  0  0  0  0  0  0  0  0  0  0
   -3.2181    0.0417   -0.9586 N   0  0  0  0  0  0  0  0  0  0  0  0
    3.4478    1.2586   -0.5141 B   0  0  0  0  0  0  0  0  0  0  0  0
    2.5821    1.6330    1.9365 N   0  0  0  0  0  0  0  0  0  0  0  0
    1.4721   -1.5550   -3.5156 B   0  0  0  0  0  0  0  0  0  0  0  0
   -2.1026    1.7542    2.7608 N   0  0  0  0  0  0  0  0  0  0  0  0
    2.0408    0.7119   -3.2115 B   0  0  0  0  0  0  0  0  0  0  0  0
   -2.7209   -1.3417    2.3206 N   0  0  0  0  0  0  0  0  0  0  0  0
    0.6586   -0.5389   -4.4869 B   0  0  0  0  0  0  0  0  0  0  0  0
   -0.1687   -3.7594   -1.3565 N   0  0  0  0  0  0  0  0  0  0  0  0
    0.4856   -2.1056    3.4338 B   0  0  0  0  0  0  0  0  0  0  0  0
   -0.5873   -1.2050    3.8245 N   0  0  0  0  0  0  0  0  0  0  0  0
   -3.2244   -1.4514    1.0003 B   0  0  0  0  0  0  0  0  0  0  0  0
    2.6713   -0.8555    2.6211 N   0  0  0  0  0  0  0  0  0  0  0  0
    1.8786    3.3393   -0.1064 B   0  0  0  0  0  0  0  0  0  0  0  0
    2.8769   -2.3318   -0.7936 N   0  0  0  0  0  0  0  0  0  0  0  0
  1  2  1  0  0  0  0
  2  3  1  0  0  0  0
  3  4  1  0  0  0  0
  4  5  4  0  0  0  0
  5  6  4  0  0  0  0
  6  7  4  0  0  0  0
  7  8  1  0  0  0  0
  7  9  4  0  0  0  0
  4 10  4  0  0  0  0
  9 10  4  0  0  0  0
  3 11  1  0  0  0  0
 11 12  2  0  0  0  0
 12 13  4  0  0  0  0
 13 14  1  0  0  0  0
 14 15  4  0  0  0  0
 15 16  4  0  0  0  0
 16 17  4  0  0  0  0
 17 18  4  0  0  0  0
 18 19  1  0  0  0  0
 19 20  4  0  0  0  0
 20 21  4  0  0  0  0
 21 22  4  0  0  0  0
 22 23  1  0  0  0  0
 23 24  1  0  0  0  0
 24 25  1  0  0  0  0
 25 26  1  0  0  0  0
 25 27  1  0  0  0  0
 25 28  1  0  0  0  0
 22 29  4  0  0  0  0
 19 30  4  0  0  0  0
 29 30  4  0  0  0  0
 11 31  1  0  0  0  0
 14 31  4  0  0  0  0
 18 31  4  0  0  0  0
  1 32  1  0  0  0  0
  1 33  1  0  0  0  0
  2 34  1  0  0  0  0
  2 35  1  0  0  0  0
  3 36  1  0  0  0  0
  5 37  1  0  0  0  0
  6 38  1  0  0  0  0
  9 39  1  0  0  0  0
 10 40  1  0  0  0  0
 12 41  1  0  0  0  0
 13 42  1  0  0  0  0
 16 43  1  0  0  0  0
 17 44  1  0  0  0  0
 20 45  1  0  0  0  0
 21 46  1  0  0  0  0
 24 47  1  0  0  0  0
 24 48  1  0  0  0  0
 29 49  1  0  0  0  0
 30 50  1  0  0  0  0
 58 59  1  0  0  0  0
 61 62  1  0  0  0  0
 57 64  1  0  0  0  0
 60 65  1  0  0  0  0
 64 67  1  0  0  0  0
 66 69  1  0  0  0  0
 68 70  1  0  0  0  0
 58 71  1  0  0  0  0
 61 72  1  0  0  0  0
 57 73  1  0  0  0  0
 70 74  1  0  0  0  0
 72 75  1  0  0  0  0
 56 77  1  0  0  0  0
 64 78  1  0  0  0  0
 73 78  1  0  0  0  0
 77 80  1  0  0  0  0
 54 81  1  0  0  0  0
 76 81  1  0  0  0  0
 78 83  1  0  0  0  0
 65 84  1  0  0  0  0
 71 85  1  0  0  0  0
 84 85  1  0  0  0  0
 66 86  1  0  0  0  0
 73 86  1  0  0  0  0
 69 87  1  0  0  0  0
 55 88  1  0  0  0  0
 62 89  1  0  0  0  0
 66 89  1  0  0  0  0
 57 90  1  0  0  0  0
 75 90  1  0  0  0  0
 89 90  1  0  0  0  0
 55 91  1  0  0  0  0
 88 91  1  0  0  0  0
 67 92  1  0  0  0  0
 74 92  1  0  0  0  0
 80 93  1  0  0  0  0
 82 93  1  0  0  0  0
 85 93  1  0  0  0  0
 77 94  1  0  0  0  0
 88 94  1  0  0  0  0
 71 95  1  0  0  0  0
 91 96  1  0  0  0  0
 51 97  1  0  0  0  0
 52 97  1  0  0  0  0
 76 97  1  0  0  0  0
 53 98  1  0  0  0  0
 87 98  1  0  0  0  0
 59 99  1  0  0  0  0
 63 99  1  0  0  0  0
 87 99  1  0  0  0  0
 61100  1  0  0  0  0
 72100  1  0  0  0  0
 59101  1  0  0  0  0
 69101  1  0  0  0  0
 62102  1  0  0  0  0
 95102  1  0  0  0  0
101102  1  0  0  0  0
 51103  1  0  0  0  0
 96103  1  0  0  0  0
 60104  1  0  0  0  0
 96104  1  0  0  0  0
 70105  1  0  0  0  0
 79106  1  0  0  0  0
 92106  1  0  0  0  0
 80107  1  0  0  0  0
 94107  1  0  0  0  0
 82108  1  0  0  0  0
 95108  1  0  0  0  0
100108  1  0  0  0  0
 52109  1  0  0  0  0
 53109  1  0  0  0  0
 76109  1  0  0  0  0
 52110  1  0  0  0  0
 83110  1  0  0  0  0
105110  1  0  0  0  0
 54111  1  0  0  0  0
 65111  1  0  0  0  0
 67112  1  0  0  0  0
 75112  1  0  0  0  0
106112  1  0  0  0  0
 54113  1  0  0  0  0
 63113  1  0  0  0  0
 98113  1  0  0  0  0
 56114  1  0  0  0  0
 79114  1  0  0  0  0
 58115  1  0  0  0  0
 63115  1  0  0  0  0
111115  1  0  0  0  0
 60116  1  0  0  0  0
 84116  1  0  0  0  0
107116  1  0  0  0  0
 55117  1  0  0  0  0
 68117  1  0  0  0  0
 74118  1  0  0  0  0
 79118  1  0  0  0  0
117118  1  0  0  0  0
 56119  1  0  0  0  0
 82119  1  0  0  0  0
114119  1  0  0  0  0
 51120  1  0  0  0  0
 68120  1  0  0  0  0
105120  1  0  0  0  0
 53121  1  0  0  0  0
 83121  1  0  0  0  0
 86121  1  0  0  0  0
 81122  1  0  0  0  0
103122  1  0  0  0  0
104122  1  0  0  0  0
M  END
