 xtb: 6.7.1pre (5071a88)
          08312618353D

122105  0     0  0            999 V2000
   -0.6840   -1.6931   -2.7877 N   0  0  0  0  0  0  0  0  0  0  0  0
   -2.0494   -1.2135   -2.5685 C   0  0  0  0  0  0  0  0  0  0  0  0
   -2.4320   -0.7953   -1.1189 C   0  0  0  0  0  0  0  0  0  0  0  0
   -1.9250    0.5089   -0.5326 C   0  0  0  0  0  0  0  0  0  0  0  0
   -1.0768    1.3622   -1.2575 C   0  0  0  0  0  0  0  0  0  0  0  0
   -0.7266    2.6236   -0.7649 C   0  0  0  0  0  0  0  0  0  0  0  0
   -1.2150    3.0468    0.4666 C   0  0  0  0  0  0  0  0  0  0  0  0
   -0.7533    4.5832    1.0878 Cl  0  0  0  0  0  0  0  0  0  0  0  0
   -2.0635    2.2273    1.2035 C   0  0  0  0  0  0  0  0  0  0  0  0
   -2.4228    0.9728    0.7024 C   0  0  0  0  0  0  0  0  0  0  0  0
   -2.3073   -1.9330   -0.1175 C   0  0  0  0  0  0  0  0  0  0  0  0
   -3.4076   -2.7492    0.1409 C   0  0  0  0  0  0  0  0  0  0  0  0
   -3.0341   -3.7487    0.9820 N   0  0  0  0  0  0  0  0  0  0  0  0
   -1.7148   -3.6233    1.2863 C   0  0  0  0  0  0  0  0  0  0  0  0
   -1.0901   -4.5134    2.0770 N   0  0  0  0  0  0  0  0  0  0  0  0
    0.2030   -4.2305    2.2848 C   0  0  0  0  0  0  0  0  0  0  0  0
    0.8572   -3.1293    1.7724 C   0  0  0  0  0  0  0  0  0  0  0  0
    0.1673   -2.2077    0.9547 C   0  0  0  0  0  0  0  0  0  0  0  0
    0.8990   -1.0144    0.5355 C   0  0  0  0  0  0  0  0  0  0  0  0
    0.9992    0.0841    1.4046 C   0  0  0  0  0  0  0  0  0  0  0  0
    1.8156    1.1814    1.1024 C   0  0  0  0  0  0  0  0  0  0  0  0
    2.5462    1.2012   -0.0833 C   0  0  0  0  0  0  0  0  0  0  0  0
    3.3613    2.2116   -0.5104 O   0  0  0  0  0  0  0  0  0  0  0  0
    3.3795    3.4077    0.2772 C   0  0  0  0  0  0  0  0  0  0  0  0
    4.2573    4.4621   -0.3780 C   0  0  0  0  0  0  0  0  0  0  0  0
    5.5360    4.0444   -0.5073 F   0  0  0  0  0  0  0  0  0  0  0  0
    3.8024    4.8065   -1.6029 F   0  0  0  0  0  0  0  0  0  0  0  0
    4.2783    5.5892    0.3744 F   0  0  0  0  0  0  0  0  0  0  0  0
    2.4728    0.1051   -0.9438 C   0  0  0  0  0  0  0  0  0  0  0  0
    1.6688   -0.9967   -0.6322 C   0  0  0  0  0  0  0  0  0  0  0  0
   -1.2017   -2.4754    0.6639 C   0  0  0  0  0  0  0  0  0  0  0  0
   -0.5046   -2.4641   -2.1427 H   0  0  0  0  0  0  0  0  0  0  0  0
   -0.6102   -2.0845   -3.7254 H   0  0  0  0  0  0  0  0  0  0  0  0
   -2.2381   -0.3801   -3.2551 H   0  0  0  0  0  0  0  0  0  0  0  0
   -2.7243   -2.0225   -2.8777 H   0  0  0  0  0  0  0  0  0  0  0  0
   -3.5141   -0.5963   -1.2124 H   0  0  0  0  0  0  0  0  0  0  0  0
   -0.6637    1.0559   -2.2164 H   0  0  0  0  0  0  0  0  0  0  0  0
   -0.0599    3.2557   -1.3448 H   0  0  0  0  0  0  0  0  0  0  0  0
   -2.4541    2.5556    2.1624 H   0  0  0  0  0  0  0  0  0  0  0  0
   -3.1073    0.3559    1.2824 H   0  0  0  0  0  0  0  0  0  0  0  0
   -4.4221   -2.7036   -0.2345 H   0  0  0  0  0  0  0  0  0  0  0  0
   -3.6140   -4.4985    1.3289 H   0  0  0  0  0  0  0  0  0  0  0  0
    0.7316   -4.9384    2.9178 H   0  0  0  0  0  0  0  0  0  0  0  0
    1.9034   -2.9684    2.0192 H   0  0  0  0  0  0  0  0  0  0  0  0
    0.4389    0.0859    2.3380 H   0  0  0  0  0  0  0  0  0  0  0  0
    1.8433    1.9992    1.8138 H   0  0  0  0  0  0  0  0  0  0  0  0
    2.3650    3.8113    0.3688 H   0  0  0  0  0  0  0  0  0  0  0  0
    3.7820    3.1879    1.2726 H   0  0  0  0  0  0  0  0  0  0  0  0
    3.0476    0.1015   -1.8666 H   0  0  0  0  0  0  0  0  0  0  0  0
    1.6608   -1.8473   -1.3084 H   0  0  0  0  0  0  0  0  0  0  0  0
    2.1012    0.0000    3.3450 B   0  0  0  0  0  0  0  0  0  0  0  0
   -2.1012    0.0000    3.3450 B   0  0  0  0  0  0  0  0  0  0  0  0
    0.0000    2.1012    3.3450 B   0  0  0  0  0  0  0  0  0  0  0  0
    0.0000   -2.1012    3.3450 B   0  0  0  0  0  0  0  0  0  0  0  0
    3.3450    2.1012    0.0000 B   0  0  0  0  0  0  0  0  0  0  0  0
    3.3450   -2.1012    0.0000 B   0  0  0  0  0  0  0  0  0  0  0  0
    3.3450    0.0000    2.1012 B   0  0  0  0  0  0  0  0  0  0  0  0
    3.3450    0.0000   -2.1012 B   0  0  0  0  0  0  0  0  0  0  0  0
   -3.3450    2.1012    0.0000 B   0  0  0  0  0  0  0  0  0  0  0  0
   -3.3450   -2.1012    0.0000 B   0  0  0  0  0  0  0  0  0  0  0  0
   -3.3450    0.0000    2.1012 B   0  0  0  0  0  0  0  0  0  0  0  0
   -3.3450    0.0000   -2.1012 B   0  0  0  0  0  0  0  0  0  0  0  0
    2.1012    0.0000   -3.3450 B   0  0  0  0  0  0  0  0  0  0  0  0
   -2.1012    0.0000   -3.3450 B   0  0  0  0  0  0  0  0  0  0  0  0
    0.0000    2.1012   -3.3450 B   0  0  0  0  0  0  0  0  0  0  0  0
    0.0000   -2.1012   -3.3450 B   0  0  0  0  0  0  0  0  0  0  0  0
    0.0000    3.3450    2.1012 B   0  0  0  0  0  0  0  0  0  0  0  0
    0.0000    3.3450   -2.1012 B   0  0  0  0  0  0  0  0  0  0  0  0
    0.0000   -3.3450    2.1012 B   0  0  0  0  0  0  0  0  0  0  0  0
    0.0000   -3.3450   -2.1012 B   0  0  0  0  0  0  0  0  0  0  0  0
    2.1012    3.3450    0.0000 B   0  0  0  0  0  0  0  0  0  0  0  0
   -2.1012    3.3450    0.0000 B   0  0  0  0  0  0  0  0  0  0  0  0
    2.1012   -3.3450    0.0000 B   0  0  0  0  0  0  0  0  0  0  0  0
   -2.1012   -3.3450    0.0000 B   0  0  0  0  0  0  0  0  0  0  0  0
    1.4800    1.4800    3.5800 B   0  0  0  0  0  0  0  0  0  0  0  0
   -1.4800    1.4800    3.5800 B   0  0  0  0  0  0  0  0  0  0  0  0
    1.4800   -1.4800    3.5800 B   0  0  0  0  0  0  0  0  0  0  0  0
   -1.4800   -1.4800    3.5800 B   0  0  0  0  0  0  0  0  0  0  0  0
    3.5800    1.4800    1.4800 B   0  0  0  0  0  0  0  0  0  0  0  0
    3.5800   -1.4800    1.4800 B   0  0  0  0  0  0  0  0  0  0  0  0
    3.5800    1.4800   -1.4800 B   0  0  0  0  0  0  0  0  0  0  0  0
    3.5800   -1.4800   -1.4800 B   0  0  0  0  0  0  0  0  0  0  0  0
   -3.5800    1.4800    1.4800 B   0  0  0  0  0  0  0  0  0  0  0  0
   -3.5800   -1.4800    1.4800 B   0  0  0  0  0  0  0  0  0  0  0  0
   -3.5800    1.4800   -1.4800 B   0  0  0  0  0  0  0  0  0  0  0  0
   -3.5800   -1.4800   -1.4800 B   0  0  0  0  0  0  0  0  0  0  0  0
    2.1012    0.0000    3.9200 N   0  0  0  0  0  0  0  0  0  0  0  0
   -2.1012    0.0000    3.9200 N   0  0  0  0  0  0  0  0  0  0  0  0
    0.0000    2.1012    3.9200 N   0  0  0  0  0  0  0  0  0  0  0  0
    0.0000   -2.1012    3.9200 N   0  0  0  0  0  0  0  0  0  0  0  0
    3.9200    2.1012    0.0000 N   0  0  0  0  0  0  0  0  0  0  0  0
    3.9200   -2.1012    0.0000 N   0  0  0  0  0  0  0  0  0  0  0  0
    3.9200    0.0000    2.1012 N   0  0  0  0  0  0  0  0  0  0  0  0
    3.9200    0.0000   -2.1012 N   0  0  0  0  0  0  0  0  0  0  0  0
   -3.9200    2.1012    0.0000 N   0  0  0  0  0  0  0  0  0  0  0  0
   -3.9200   -2.1012    0.0000 N   0  0  0  0  0  0  0  0  0  0  0  0
   -3.9200    0.0000    2.1012 N   0  0  0  0  0  0  0  0  0  0  0  0
   -3.9200    0.0000   -2.1012 N   0  0  0  0  0  0  0  0  0  0  0  0
    2.1012    0.0000   -3.9200 N   0  0  0  0  0  0  0  0  0  0  0  0
   -2.1012    0.0000   -3.9200 N   0  0  0  0  0  0  0  0  0  0  0  0
    0.0000    2.1012   -3.9200 N   0  0  0  0  0  0  0  0  0  0  0  0
    0.0000   -2.1012   -3.9200 N   0  0  0  0  0  0  0  0  0  0  0  0
    0.0000    3.9200    2.1012 N   0  0  0  0  0  0  0  0  0  0  0  0
    0.0000    3.9200   -2.1012 N   0  0  0  0  0  0  0  0  0  0  0  0
    0.0000   -3.9200    2.1012 N   0  0  0  0  0  0  0  0  0  0  0  0
    0.0000   -3.9200   -2.1012 N   0  0  0  0  0  0  0  0  0  0  0  0
    2.1012    3.9200    0.0000 N   0  0  0  0  0  0  0  0  0  0  0  0
   -2.1012    3.9200    0.0000 N   0  0  0  0  0  0  0  0  0  0  0  0
    2.1012   -3.9200    0.0000 N   0  0  0  0  0  0  0  0  0  0  0  0
   -2.1012   -3.9200    0.0000 N   0  0  0  0  0  0  0  0  0  0  0  0
    1.4800    1.4800    4.2200 N   0  0  0  0  0  0  0  0  0  0  0  0
   -1.4800    1.4800    4.2200 N   0  0  0  0  0  0  0  0  0  0  0  0
    1.4800   -1.4800    4.2200 N   0  0  0  0  0  0  0  0  0  0  0  0
   -1.4800   -1.4800    4.2200 N   0  0  0  0  0  0  0  0  0  0  0  0
    4.2200    1.4800    1.4800 N   0  0  0  0  0  0  0  0  0  0  0  0
    4.2200   -1.4800    1.4800 N   0  0  0  0  0  0  0  0  0  0  0  0
    4.2200    1.4800   -1.4800 N   0  0  0  0  0  0  0  0  0  0  0  0
    4.2200   -1.4800   -1.4800 N   0  0  0  0  0  0  0  0  0  0  0  0
   -4.2200    1.4800    1.4800 N   0  0  0  0  0  0  0  0  0  0  0  0
   -4.2200   -1.4800    1.4800 N   0  0  0  0  0  0  0  0  0  0  0  0
   -4.2200    1.4800   -1.4800 N   0  0  0  0  0  0  0  0  0  0  0  0
   -4.2200   -1.4800   -1.4800 N   0  0  0  0  0  0  0  0  0  0  0  0
  1  2  1  0  0  0  0
  2  3  1  0  0  0  0
  3  4  1  0  0  0  0
  4  5  1  0  0  0  0
  5  6  4  0  0  0  0
  6  7  1  0  0  0  0
  7  8  1  0  0  0  0
  7  9  1  0  0  0  0
  4 10  1  0  0  0  0
  9 10  1  0  0  0  0
  3 11  1  0  0  0  0
 11 12  1  0  0  0  0
 12 13  1  0  0  0  0
 13 14  1  0  0  0  0
 14 15  1  0  0  0  0
 15 16  1  0  0  0  0
 17 18  1  0  0  0  0
 18 19  1  0  0  0  0
 19 20  4  0  0  0  0
 20 21  1  0  0  0  0
 21 22  1  0  0  0  0
 24 25  1  0  0  0  0
 25 26  1  0  0  0  0
 25 27  1  0  0  0  0
 25 28  1  0  0  0  0
 22 29  1  0  0  0  0
 19 30  1  0  0  0  0
 29 30  1  0  0  0  0
 11 31  1  0  0  0  0
 14 31  1  0  0  0  0
 18 31  1  0  0  0  0
  1 32  1  0  0  0  0
  2 35  1  0  0  0  0
  5 37  1  0  0  0  0
  6 38  1  0  0  0  0
  9 39  1  0  0  0  0
 10 40  1  0  0  0  0
 13 42  1  0  0  0  0
 16 43  1  0  0  0  0
 17 44  1  0  0  0  0
 20 45  1  0  0  0  0
 21 46  1  0  0  0  0
 24 48  1  0  0  0  0
 30 50  1  0  0  0  0
 22 55  1  0  0  0  0
 23 55  2  0  0  0  0
 29 58  1  0  0  0  0
 11 60  1  0  0  0  0
 12 60  1  0  0  0  0
  2 64  1  0  0  0  0
  1 66  1  0  0  0  0
 17 69  1  0  0  0  0
 54 69  1  0  0  0  0
 24 71  1  0  0  0  0
  7 72  1  0  0  0  0
 11 74  1  0  0  0  0
 31 74  1  0  0  0  0
 10 83  1  0  0  0  0
  3 86  1  0  0  0  0
 51 87  3  0  0  0  0
 52 88  3  0  0  0  0
 53 89  3  0  0  0  0
 54 90  3  0  0  0  0
 23 91  1  0  0  0  0
 55 91  1  0  0  0  0
 56 92  3  0  0  0  0
 57 93  3  0  0  0  0
 58 94  3  0  0  0  0
 59 95  3  0  0  0  0
 12 96  1  0  0  0  0
 41 96  1  0  0  0  0
 60 96  2  0  0  0  0
 61 97  3  0  0  0  0
 62 98  3  0  0  0  0
 63 99  3  0  0  0  0
 64100  3  0  0  0  0
 65101  3  0  0  0  0
 33102  1  0  0  0  0
 66102  2  0  0  0  0
  8103  1  0  0  0  0
 67103  3  0  0  0  0
 68104  3  0  0  0  0
 16105  3  0  0  0  0
 69105  1  0  0  0  0
 70106  3  0  0  0  0
 24107  1  0  0  0  0
 47107  1  0  0  0  0
 71107  2  0  0  0  0
  7108  1  0  0  0  0
 72108  3  0  0  0  0
 73109  3  0  0  0  0
 14110  1  0  0  0  0
 74110  2  0  0  0  0
 75111  3  0  0  0  0
 76112  3  0  0  0  0
 77113  3  0  0  0  0
 78114  3  0  0  0  0
 79115  3  0  0  0  0
 80116  3  0  0  0  0
 81117  3  0  0  0  0
 82118  3  0  0  0  0
 83119  3  0  0  0  0
 84120  3  0  0  0  0
 85121  3  0  0  0  0
 86122  3  0  0  0  0
M  END
