 xtb: 6.7.1pre (5071a88)
          08312618353D

134115  0     0  0            999 V2000
   -6.0002    1.0893    3.4039 C   0  0  0  0  0  0  0  0  0  0  0  0
   -6.6249    1.3889    2.1235 N   0  0  0  0  0  0  0  0  0  0  0  0
   -8.0529    1.6515    2.1561 C   0  0  0  0  0  0  0  0  0  0  0  0
   -5.9999    1.2530    0.8832 C   0  0  0  0  0  0  0  0  0  0  0  0
   -6.6482    1.2088   -0.1605 O   0  0  0  0  0  0  0  0  0  0  0  0
   -4.5488    1.1922    0.8652 C   0  0  0  0  0  0  0  0  0  0  0  0
   -3.6538    2.0690    1.4685 C   0  0  0  0  0  0  0  0  0  0  0  0
   -2.3418    1.6665    1.1351 C   0  0  0  0  0  0  0  0  0  0  0  0
   -1.0526    2.1016    1.4041 C   0  0  0  0  0  0  0  0  0  0  0  0
    0.0009    1.4327    0.8831 N   0  0  0  0  0  0  0  0  0  0  0  0
   -0.2144    0.3543    0.1024 C   0  0  0  0  0  0  0  0  0  0  0  0
    0.8441   -0.3502   -0.4453 N   0  0  0  0  0  0  0  0  0  0  0  0
    2.2195   -0.2382   -0.4087 C   0  0  0  0  0  0  0  0  0  0  0  0
    2.9121    0.7391    0.2882 C   0  0  0  0  0  0  0  0  0  0  0  0
    4.3135    0.7680    0.2534 C   0  0  0  0  0  0  0  0  0  0  0  0
    5.0375   -0.1684   -0.4837 C   0  0  0  0  0  0  0  0  0  0  0  0
    6.4379   -0.1979   -0.5532 N   0  0  0  0  0  0  0  0  0  0  0  0
    7.1985    0.7120    0.3295 C   0  0  0  0  0  0  0  0  0  0  0  0
    8.7116    0.4010    0.2805 C   0  0  0  0  0  0  0  0  0  0  0  0
    9.2714    0.4214   -1.0854 N   0  0  0  0  0  0  0  0  0  0  0  0
    8.5135   -0.5447   -1.9046 C   0  0  0  0  0  0  0  0  0  0  0  0
    6.9888   -0.2847   -1.9280 C   0  0  0  0  0  0  0  0  0  0  0  0
    4.2434   -1.1227   -1.1250 C   0  0  0  0  0  0  0  0  0  0  0  0
    2.8842   -1.1741   -1.1154 N   0  0  0  0  0  0  0  0  0  0  0  0
   -1.4271   -0.1302   -0.2116 N   0  0  0  0  0  0  0  0  0  0  0  0
   -2.4506    0.5545    0.3229 C   0  0  0  0  0  0  0  0  0  0  0  0
   -3.7896    0.2717    0.1545 N   0  0  0  0  0  0  0  0  0  0  0  0
   -4.3105   -0.8431   -0.6237 C   0  0  0  0  0  0  0  0  0  0  0  0
   -3.9079   -0.8255   -2.1108 C   0  0  0  0  0  0  0  0  0  0  0  0
   -3.2112   -2.1585   -2.3655 C   0  0  0  0  0  0  0  0  0  0  0  0
   -3.8104   -3.0961   -1.3308 C   0  0  0  0  0  0  0  0  0  0  0  0
   -3.9067   -2.2266   -0.0863 C   0  0  0  0  0  0  0  0  0  0  0  0
   -5.8703    2.0254    3.9541 H   0  0  0  0  0  0  0  0  0  0  0  0
   -5.0376    0.5870    3.2942 H   0  0  0  0  0  0  0  0  0  0  0  0
   -6.6584    0.4252    3.9732 H   0  0  0  0  0  0  0  0  0  0  0  0
   -8.2634    2.3824    2.9426 H   0  0  0  0  0  0  0  0  0  0  0  0
   -8.5763    0.7160    2.3744 H   0  0  0  0  0  0  0  0  0  0  0  0
   -8.4152    2.0488    1.2040 H   0  0  0  0  0  0  0  0  0  0  0  0
   -3.9331    2.9244    2.0708 H   0  0  0  0  0  0  0  0  0  0  0  0
   -0.8258    2.9633    2.0199 H   0  0  0  0  0  0  0  0  0  0  0  0
    0.5322   -1.1267   -1.0058 H   0  0  0  0  0  0  0  0  0  0  0  0
    2.3920    1.4936    0.8661 H   0  0  0  0  0  0  0  0  0  0  0  0
    4.8059    1.5581    0.8101 H   0  0  0  0  0  0  0  0  0  0  0  0
    6.8691    0.5983    1.3694 H   0  0  0  0  0  0  0  0  0  0  0  0
    7.0376    1.7540    0.0236 H   0  0  0  0  0  0  0  0  0  0  0  0
    9.2490    1.1371    0.8886 H   0  0  0  0  0  0  0  0  0  0  0  0
    8.9035   -0.5804    0.7321 H   0  0  0  0  0  0  0  0  0  0  0  0
    9.1230    1.3522   -1.4754 H   0  0  0  0  0  0  0  0  0  0  0  0
    8.8986   -0.5095   -2.9298 H   0  0  0  0  0  0  0  0  0  0  0  0
    8.7081   -1.5581   -1.5314 H   0  0  0  0  0  0  0  0  0  0  0  0
    6.7871    0.6545   -2.4597 H   0  0  0  0  0  0  0  0  0  0  0  0
    6.5303   -1.0973   -2.5011 H   0  0  0  0  0  0  0  0  0  0  0  0
    4.6964   -1.9398   -1.6787 H   0  0  0  0  0  0  0  0  0  0  0  0
   -5.4029   -0.7947   -0.5840 H   0  0  0  0  0  0  0  0  0  0  0  0
   -3.2745    0.0206   -2.3958 H   0  0  0  0  0  0  0  0  0  0  0  0
   -4.8141   -0.7661   -2.7268 H   0  0  0  0  0  0  0  0  0  0  0  0
   -3.3641   -2.5155   -3.3881 H   0  0  0  0  0  0  0  0  0  0  0  0
   -2.1322   -2.0572   -2.2014 H   0  0  0  0  0  0  0  0  0  0  0  0
   -4.8093   -3.4206   -1.6452 H   0  0  0  0  0  0  0  0  0  0  0  0
   -3.1954   -3.9859   -1.1692 H   0  0  0  0  0  0  0  0  0  0  0  0
   -4.6442   -2.6156    0.6237 H   0  0  0  0  0  0  0  0  0  0  0  0
   -2.9412   -2.2104    0.4306 H   0  0  0  0  0  0  0  0  0  0  0  0
    2.1012    0.0000    3.3450 B   0  0  0  0  0  0  0  0  0  0  0  0
   -2.1012    0.0000    3.3450 B   0  0  0  0  0  0  0  0  0  0  0  0
    0.0000    2.1012    3.3450 B   0  0  0  0  0  0  0  0  0  0  0  0
    0.0000   -2.1012    3.3450 B   0  0  0  0  0  0  0  0  0  0  0  0
    3.3450    2.1012    0.0000 B   0  0  0  0  0  0  0  0  0  0  0  0
    3.3450   -2.1012    0.0000 B   0  0  0  0  0  0  0  0  0  0  0  0
    3.3450    0.0000    2.1012 B   0  0  0  0  0  0  0  0  0  0  0  0
    3.3450    0.0000   -2.1012 B   0  0  0  0  0  0  0  0  0  0  0  0
   -3.3450    2.1012    0.0000 B   0  0  0  0  0  0  0  0  0  0  0  0
   -3.3450   -2.1012    0.0000 B   0  0  0  0  0  0  0  0  0  0  0  0
   -3.3450    0.0000    2.1012 B   0  0  0  0  0  0  0  0  0  0  0  0
   -3.3450    0.0000   -2.1012 B   0  0  0  0  0  0  0  0  0  0  0  0
    2.1012    0.0000   -3.3450 B   0  0  0  0  0  0  0  0  0  0  0  0
   -2.1012    0.0000   -3.3450 B   0  0  0  0  0  0  0  0  0  0  0  0
    0.0000    2.1012   -3.3450 B   0  0  0  0  0  0  0  0  0  0  0  0
    0.0000   -2.1012   -3.3450 B   0  0  0  0  0  0  0  0  0  0  0  0
    0.0000    3.3450    2.1012 B   0  0  0  0  0  0  0  0  0  0  0  0
    0.0000    3.3450   -2.1012 B   0  0  0  0  0  0  0  0  0  0  0  0
    0.0000   -3.3450    2.1012 B   0  0  0  0  0  0  0  0  0  0  0  0
    0.0000   -3.3450   -2.1012 B   0  0  0  0  0  0  0  0  0  0  0  0
    2.1012    3.3450    0.0000 B   0  0  0  0  0  0  0  0  0  0  0  0
   -2.1012    3.3450    0.0000 B   0  0  0  0  0  0  0  0  0  0  0  0
    2.1012   -3.3450    0.0000 B   0  0  0  0  0  0  0  0  0  0  0  0
   -2.1012   -3.3450    0.0000 B   0  0  0  0  0  0  0  0  0  0  0  0
    1.4800    1.4800    3.5800 B   0  0  0  0  0  0  0  0  0  0  0  0
   -1.4800    1.4800    3.5800 B   0  0  0  0  0  0  0  0  0  0  0  0
    1.4800   -1.4800    3.5800 B   0  0  0  0  0  0  0  0  0  0  0  0
   -1.4800   -1.4800    3.5800 B   0  0  0  0  0  0  0  0  0  0  0  0
    3.5800    1.4800    1.4800 B   0  0  0  0  0  0  0  0  0  0  0  0
    3.5800   -1.4800    1.4800 B   0  0  0  0  0  0  0  0  0  0  0  0
    3.5800    1.4800   -1.4800 B   0  0  0  0  0  0  0  0  0  0  0  0
    3.5800   -1.4800   -1.4800 B   0  0  0  0  0  0  0  0  0  0  0  0
   -3.5800    1.4800    1.4800 B   0  0  0  0  0  0  0  0  0  0  0  0
   -3.5800   -1.4800    1.4800 B   0  0  0  0  0  0  0  0  0  0  0  0
   -3.5800    1.4800   -1.4800 B   0  0  0  0  0  0  0  0  0  0  0  0
   -3.5800   -1.4800   -1.4800 B   0  0  0  0  0  0  0  0  0  0  0  0
    2.1012    0.0000    3.9200 N   0  0  0  0  0  0  0  0  0  0  0  0
   -2.1012    0.0000    3.9200 N   0  0  0  0  0  0  0  0  0  0  0  0
    0.0000    2.1012    3.9200 N   0  0  0  0  0  0  0  0  0  0  0  0
    0.0000   -2.1012    3.9200 N   0  0  0  0  0  0  0  0  0  0  0  0
    3.9200    2.1012    0.0000 N   0  0  0  0  0  0  0  0  0  0  0  0
    3.9200   -2.1012    0.0000 N   0  0  0  0  0  0  0  0  0  0  0  0
    3.9200    0.0000    2.1012 N   0  0  0  0  0  0  0  0  0  0  0  0
    3.9200    0.0000   -2.1012 N   0  0  0  0  0  0  0  0  0  0  0  0
   -3.9200    2.1012    0.0000 N   0  0  0  0  0  0  0  0  0  0  0  0
   -3.9200   -2.1012    0.0000 N   0  0  0  0  0  0  0  0  0  0  0  0
   -3.9200    0.0000    2.1012 N   0  0  0  0  0  0  0  0  0  0  0  0
   -3.9200    0.0000   -2.1012 N   0  0  0  0  0  0  0  0  0  0  0  0
    2.1012    0.0000   -3.9200 N   0  0  0  0  0  0  0  0  0  0  0  0
   -2.1012    0.0000   -3.9200 N   0  0  0  0  0  0  0  0  0  0  0  0
    0.0000    2.1012   -3.9200 N   0  0  0  0  0  0  0  0  0  0  0  0
    0.0000   -2.1012   -3.9200 N   0  0  0  0  0  0  0  0  0  0  0  0
    0.0000    3.9200    2.1012 N   0  0  0  0  0  0  0  0  0  0  0  0
    0.0000    3.9200   -2.1012 N   0  0  0  0  0  0  0  0  0  0  0  0
    0.0000   -3.9200    2.1012 N   0  0  0  0  0  0  0  0  0  0  0  0
    0.0000   -3.9200   -2.1012 N   0  0  0  0  0  0  0  0  0  0  0  0
    2.1012    3.9200    0.0000 N   0  0  0  0  0  0  0  0  0  0  0  0
   -2.1012    3.9200    0.0000 N   0  0  0  0  0  0  0  0  0  0  0  0
    2.1012   -3.9200    0.0000 N   0  0  0  0  0  0  0  0  0  0  0  0
   -2.1012   -3.9200    0.0000 N   0  0  0  0  0  0  0  0  0  0  0  0
    1.4800    1.4800    4.2200 N   0  0  0  0  0  0  0  0  0  0  0  0
   -1.4800    1.4800    4.2200 N   0  0  0  0  0  0  0  0  0  0  0  0
    1.4800   -1.4800    4.2200 N   0  0  0  0  0  0  0  0  0  0  0  0
   -1.4800   -1.4800    4.2200 N   0  0  0  0  0  0  0  0  0  0  0  0
    4.2200    1.4800    1.4800 N   0  0  0  0  0  0  0  0  0  0  0  0
    4.2200   -1.4800    1.4800 N   0  0  0  0  0  0  0  0  0  0  0  0
    4.2200    1.4800   -1.4800 N   0  0  0  0  0  0  0  0  0  0  0  0
    4.2200   -1.4800   -1.4800 N   0  0  0  0  0  0  0  0  0  0  0  0
   -4.2200    1.4800    1.4800 N   0  0  0  0  0  0  0  0  0  0  0  0
   -4.2200   -1.4800    1.4800 N   0  0  0  0  0  0  0  0  0  0  0  0
   -4.2200    1.4800   -1.4800 N   0  0  0  0  0  0  0  0  0  0  0  0
   -4.2200   -1.4800   -1.4800 N   0  0  0  0  0  0  0  0  0  0  0  0
  1  2  1  0  0  0  0
  2  3  1  0  0  0  0
  2  4  1  0  0  0  0
  4  5  4  0  0  0  0
  4  6  1  0  0  0  0
  7  8  1  0  0  0  0
  8  9  1  0  0  0  0
  9 10  1  0  0  0  0
 10 11  4  0  0  0  0
 11 12  1  0  0  0  0
 12 13  1  0  0  0  0
 13 14  1  0  0  0  0
 14 15  1  0  0  0  0
 15 16  1  0  0  0  0
 16 17  1  0  0  0  0
 17 18  1  0  0  0  0
 18 19  1  0  0  0  0
 19 20  1  0  0  0  0
 20 21  1  0  0  0  0
 17 22  1  0  0  0  0
 21 22  1  0  0  0  0
 16 23  1  0  0  0  0
 13 24  1  0  0  0  0
 23 24  1  0  0  0  0
 11 25  1  0  0  0  0
  8 26  1  0  0  0  0
 25 26  1  0  0  0  0
  6 27  1  0  0  0  0
 26 27  1  0  0  0  0
 27 28  1  0  0  0  0
 30 31  1  0  0  0  0
  1 33  1  0  0  0  0
  1 34  1  0  0  0  0
  1 35  1  0  0  0  0
  3 36  1  0  0  0  0
  3 37  1  0  0  0  0
  3 38  1  0  0  0  0
  7 39  1  0  0  0  0
  9 40  1  0  0  0  0
 12 41  1  0  0  0  0
 14 42  1  0  0  0  0
 18 44  1  0  0  0  0
 18 45  1  0  0  0  0
 19 46  1  0  0  0  0
 19 47  1  0  0  0  0
 20 48  1  0  0  0  0
 21 49  1  0  0  0  0
 21 50  1  0  0  0  0
 22 51  1  0  0  0  0
 22 52  1  0  0  0  0
 28 54  1  0  0  0  0
 29 56  1  0  0  0  0
 30 57  1  0  0  0  0
 30 58  1  0  0  0  0
 31 59  1  0  0  0  0
 31 60  1  0  0  0  0
 14 67  1  0  0  0  0
 32 72  1  0  0  0  0
 62 72  1  0  0  0  0
 29 74  1  0  0  0  0
 55 74  1  0  0  0  0
 24 94  2  0  0  0  0
  7 95  1  0  0  0  0
  8 95  1  0  0  0  0
 29 98  1  0  0  0  0
 30 98  1  0  0  0  0
 72 98  1  0  0  0  0
 63 99  3  0  0  0  0
 64100  3  0  0  0  0
 65101  3  0  0  0  0
 66102  3  0  0  0  0
 15103  1  0  0  0  0
 67103  3  0  0  0  0
 68104  3  0  0  0  0
 69105  3  0  0  0  0
 70106  3  0  0  0  0
  6107  1  0  0  0  0
 71107  3  0  0  0  0
 32108  3  0  0  0  0
 72108  1  0  0  0  0
 73109  3  0  0  0  0
 29110  4  0  0  0  0
 74110  2  0  0  0  0
 75111  3  0  0  0  0
 76112  3  0  0  0  0
 77113  3  0  0  0  0
 78114  3  0  0  0  0
 79115  3  0  0  0  0
 80116  3  0  0  0  0
 81117  3  0  0  0  0
 82118  3  0  0  0  0
 83119  3  0  0  0  0
 84120  3  0  0  0  0
 85121  3  0  0  0  0
 86122  3  0  0  0  0
 87123  3  0  0  0  0
 88124  3  0  0  0  0
 89125  3  0  0  0  0
 90126  3  0  0  0  0
 15127  1  0  0  0  0
 43127  1  0  0  0  0
 91127  2  0  0  0  0
 92128  3  0  0  0  0
 93129  3  0  0  0  0
 23130  2  0  0  0  0
 53130  1  0  0  0  0
 94130  1  0  0  0  0
  6131  4  0  0  0  0
  7131  1  0  0  0  0
 95131  1  0  0  0  0
 96132  3  0  0  0  0
 97133  3  0  0  0  0
 28134  1  0  0  0  0
 29134  1  0  0  0  0
 98134  1  0  0  0  0
M  END
