 xtb: 6.7.1pre (5071a88)
          08312622223D

134174  0     0  0            999 V2000
   -6.0002    1.0348   14.4486 C   0  0  0  0  0  0  0  0  0  0  0  0
   -6.6249    1.3344   13.1682 N   0  0  0  0  0  0  0  0  0  0  0  0
   -8.0529    1.5971   13.2008 C   0  0  0  0  0  0  0  0  0  0  0  0
   -5.9999    1.1985   11.9280 C   0  0  0  0  0  0  0  0  0  0  0  0
   -6.6482    1.1543   10.8843 O   0  0  0  0  0  0  0  0  0  0  0  0
   -4.5488    1.1378   11.9099 C   0  0  0  0  0  0  0  0  0  0  0  0
   -3.6538    2.0145   12.5132 C   0  0  0  0  0  0  0  0  0  0  0  0
   -2.3418    1.6120   12.1798 C   0  0  0  0  0  0  0  0  0  0  0  0
   -1.0526    2.0471   12.4488 C   0  0  0  0  0  0  0  0  0  0  0  0
    0.0009    1.3782   11.9278 N   0  0  0  0  0  0  0  0  0  0  0  0
   -0.2144    0.2998   11.1471 C   0  0  0  0  0  0  0  0  0  0  0  0
    0.8441   -0.4047   10.5994 N   0  0  0  0  0  0  0  0  0  0  0  0
    2.2195   -0.2927   10.6360 C   0  0  0  0  0  0  0  0  0  0  0  0
    2.9121    0.6846   11.3329 C   0  0  0  0  0  0  0  0  0  0  0  0
    4.3135    0.7136   11.2982 C   0  0  0  0  0  0  0  0  0  0  0  0
    5.0375   -0.2228   10.5610 C   0  0  0  0  0  0  0  0  0  0  0  0
    6.4379   -0.2524   10.4915 N   0  0  0  0  0  0  0  0  0  0  0  0
    7.1985    0.6575   11.3742 C   0  0  0  0  0  0  0  0  0  0  0  0
    8.7116    0.3465   11.3253 C   0  0  0  0  0  0  0  0  0  0  0  0
    9.2714    0.3669    9.9593 N   0  0  0  0  0  0  0  0  0  0  0  0
    8.5135   -0.5992    9.1401 C   0  0  0  0  0  0  0  0  0  0  0  0
    6.9888   -0.3392    9.1167 C   0  0  0  0  0  0  0  0  0  0  0  0
    4.2434   -1.1771    9.9197 C   0  0  0  0  0  0  0  0  0  0  0  0
    2.8842   -1.2285    9.9293 N   0  0  0  0  0  0  0  0  0  0  0  0
   -1.4271   -0.1847   10.8331 N   0  0  0  0  0  0  0  0  0  0  0  0
   -2.4506    0.5000   11.3676 C   0  0  0  0  0  0  0  0  0  0  0  0
   -3.7896    0.2173   11.1992 N   0  0  0  0  0  0  0  0  0  0  0  0
   -4.3105   -0.8976   10.4210 C   0  0  0  0  0  0  0  0  0  0  0  0
   -3.9079   -0.8799    8.9339 C   0  0  0  0  0  0  0  0  0  0  0  0
   -3.2112   -2.2130    8.6793 C   0  0  0  0  0  0  0  0  0  0  0  0
   -3.8104   -3.1506    9.7139 C   0  0  0  0  0  0  0  0  0  0  0  0
   -3.9067   -2.2811   10.9584 C   0  0  0  0  0  0  0  0  0  0  0  0
   -5.8703    1.9709   14.9988 H   0  0  0  0  0  0  0  0  0  0  0  0
   -5.0376    0.5325   14.3389 H   0  0  0  0  0  0  0  0  0  0  0  0
   -6.6584    0.3707   15.0180 H   0  0  0  0  0  0  0  0  0  0  0  0
   -8.2634    2.3279   13.9874 H   0  0  0  0  0  0  0  0  0  0  0  0
   -8.5763    0.6615   13.4191 H   0  0  0  0  0  0  0  0  0  0  0  0
   -8.4152    1.9944   12.2488 H   0  0  0  0  0  0  0  0  0  0  0  0
   -3.9331    2.8699   13.1155 H   0  0  0  0  0  0  0  0  0  0  0  0
   -0.8258    2.9088   13.0646 H   0  0  0  0  0  0  0  0  0  0  0  0
    0.5322   -1.1812   10.0389 H   0  0  0  0  0  0  0  0  0  0  0  0
    2.3920    1.4391   11.9108 H   0  0  0  0  0  0  0  0  0  0  0  0
    4.8059    1.5036   11.8548 H   0  0  0  0  0  0  0  0  0  0  0  0
    6.8691    0.5438   12.4141 H   0  0  0  0  0  0  0  0  0  0  0  0
    7.0376    1.6995   11.0684 H   0  0  0  0  0  0  0  0  0  0  0  0
    9.2490    1.0826   11.9333 H   0  0  0  0  0  0  0  0  0  0  0  0
    8.9035   -0.6349   11.7768 H   0  0  0  0  0  0  0  0  0  0  0  0
    9.1230    1.2978    9.5693 H   0  0  0  0  0  0  0  0  0  0  0  0
    8.8986   -0.5640    8.1149 H   0  0  0  0  0  0  0  0  0  0  0  0
    8.7081   -1.6126    9.5133 H   0  0  0  0  0  0  0  0  0  0  0  0
    6.7871    0.6000    8.5850 H   0  0  0  0  0  0  0  0  0  0  0  0
    6.5303   -1.1518    8.5436 H   0  0  0  0  0  0  0  0  0  0  0  0
    4.6964   -1.9943    9.3660 H   0  0  0  0  0  0  0  0  0  0  0  0
   -5.4029   -0.8492   10.4607 H   0  0  0  0  0  0  0  0  0  0  0  0
   -3.2745   -0.0339    8.6489 H   0  0  0  0  0  0  0  0  0  0  0  0
   -4.8141   -0.8206    8.3179 H   0  0  0  0  0  0  0  0  0  0  0  0
   -3.3641   -2.5699    7.6567 H   0  0  0  0  0  0  0  0  0  0  0  0
   -2.1322   -2.1117    8.8434 H   0  0  0  0  0  0  0  0  0  0  0  0
   -4.8093   -3.4751    9.3995 H   0  0  0  0  0  0  0  0  0  0  0  0
   -3.1954   -4.0403    9.8755 H   0  0  0  0  0  0  0  0  0  0  0  0
   -4.6442   -2.6700   11.6684 H   0  0  0  0  0  0  0  0  0  0  0  0
   -2.9412   -2.2649   11.4753 H   0  0  0  0  0  0  0  0  0  0  0  0
    3.4592   -1.4546    1.6280 B   0  0  0  0  0  0  0  0  0  0  0  0
    3.4564    1.1299    0.9400 N   0  0  0  0  0  0  0  0  0  0  0  0
    2.5399    2.3625   -1.2610 B   0  0  0  0  0  0  0  0  0  0  0  0
    2.2931   -0.6416   -2.7306 N   0  0  0  0  0  0  0  0  0  0  0  0
    0.6905   -3.5611    2.7027 B   0  0  0  0  0  0  0  0  0  0  0  0
   -2.9397   -2.6548    1.7095 N   0  0  0  0  0  0  0  0  0  0  0  0
   -1.0382    4.0851    1.8312 B   0  0  0  0  0  0  0  0  0  0  0  0
   -0.6193    0.0177   -3.9419 N   0  0  0  0  0  0  0  0  0  0  0  0
   -0.4737    1.4453   -4.0917 B   0  0  0  0  0  0  0  0  0  0  0  0
    1.2096   -3.7868   -1.7394 N   0  0  0  0  0  0  0  0  0  0  0  0
   -3.8445    2.2094   -0.4937 B   0  0  0  0  0  0  0  0  0  0  0  0
   -2.7729    2.7636   -1.2118 N   0  0  0  0  0  0  0  0  0  0  0  0
    1.4057    0.8181   -4.8893 B   0  0  0  0  0  0  0  0  0  0  0  0
   -0.2358    3.3642    2.8335 N   0  0  0  0  0  0  0  0  0  0  0  0
    0.8983   -2.8798   -2.8138 B   0  0  0  0  0  0  0  0  0  0  0  0
   -0.4918    3.7666   -1.0101 N   0  0  0  0  0  0  0  0  0  0  0  0
   -0.8060    2.1823    3.2819 B   0  0  0  0  0  0  0  0  0  0  0  0
    1.6561   -1.2744    3.5036 N   0  0  0  0  0  0  0  0  0  0  0  0
   -0.2485    3.4699   -2.3799 B   0  0  0  0  0  0  0  0  0  0  0  0
    1.3087    0.0689    3.8170 N   0  0  0  0  0  0  0  0  0  0  0  0
   -1.5974   -0.5599   -3.0847 B   0  0  0  0  0  0  0  0  0  0  0  0
   -3.8325    1.7768    0.8316 N   0  0  0  0  0  0  0  0  0  0  0  0
    0.3376    4.4960    1.1839 B   0  0  0  0  0  0  0  0  0  0  0  0
    0.0433   -0.0140    4.4567 N   0  0  0  0  0  0  0  0  0  0  0  0
   -2.7088    2.2268    1.6012 B   0  0  0  0  0  0  0  0  0  0  0  0
    3.7727   -0.1326   -0.7655 N   0  0  0  0  0  0  0  0  0  0  0  0
   -2.2534   -3.6394    1.0085 B   0  0  0  0  0  0  0  0  0  0  0  0
    1.0558    3.7334    2.2357 N   0  0  0  0  0  0  0  0  0  0  0  0
   -1.8256   -0.7775    3.2198 B   0  0  0  0  0  0  0  0  0  0  0  0
   -2.4368   -3.6019   -0.4508 N   0  0  0  0  0  0  0  0  0  0  0  0
    3.0187   -1.0737   -1.5028 B   0  0  0  0  0  0  0  0  0  0  0  0
   -3.1580   -1.2526   -0.3843 N   0  0  0  0  0  0  0  0  0  0  0  0
    2.0347    2.9223    1.5617 B   0  0  0  0  0  0  0  0  0  0  0  0
   -0.5074   -2.9001   -2.4328 N   0  0  0  0  0  0  0  0  0  0  0  0
   -1.6735   -2.1129   -2.4916 B   0  0  0  0  0  0  0  0  0  0  0  0
    0.5901    3.9646   -0.1102 N   0  0  0  0  0  0  0  0  0  0  0  0
    1.0903    2.9596   -3.1825 B   0  0  0  0  0  0  0  0  0  0  0  0
    0.0774   -4.3592    1.7213 N   0  0  0  0  0  0  0  0  0  0  0  0
   -1.7840    3.4524   -0.4082 B   0  0  0  0  0  0  0  0  0  0  0  0
   -2.0135    3.4185    1.0316 N   0  0  0  0  0  0  0  0  0  0  0  0
    1.4659   -4.2121    1.4991 B   0  0  0  0  0  0  0  0  0  0  0  0
   -0.7980    1.0642    4.1946 N   0  0  0  0  0  0  0  0  0  0  0  0
   -2.6662   -2.4021   -1.1753 B   0  0  0  0  0  0  0  0  0  0  0  0
   -1.0744   -4.4843    0.9912 N   0  0  0  0  0  0  0  0  0  0  0  0
   -2.5037    0.4914   -2.1091 B   0  0  0  0  0  0  0  0  0  0  0  0
    2.3527   -3.8873    0.4531 N   0  0  0  0  0  0  0  0  0  0  0  0
    3.9123   -0.2024    0.7259 B   0  0  0  0  0  0  0  0  0  0  0  0
    1.9285    1.9570   -2.4651 N   0  0  0  0  0  0  0  0  0  0  0  0
    1.0012    2.2544   -4.6225 B   0  0  0  0  0  0  0  0  0  0  0  0
   -4.1860    0.8290   -0.3475 N   0  0  0  0  0  0  0  0  0  0  0  0
   -1.3389    2.4537   -3.1149 B   0  0  0  0  0  0  0  0  0  0  0  0
   -2.3596    1.9326   -2.3058 N   0  0  0  0  0  0  0  0  0  0  0  0
    3.0731   -2.6455    0.6011 B   0  0  0  0  0  0  0  0  0  0  0  0
    2.3352   -3.6737   -0.9709 N   0  0  0  0  0  0  0  0  0  0  0  0
    2.2179    0.5458    2.8084 B   0  0  0  0  0  0  0  0  0  0  0  0
   -2.0264    0.6119    3.6015 N   0  0  0  0  0  0  0  0  0  0  0  0
   -1.1017   -4.1838   -0.4410 B   0  0  0  0  0  0  0  0  0  0  0  0
   -3.2181    0.0417   -0.9586 N   0  0  0  0  0  0  0  0  0  0  0  0
    3.4478    1.2586   -0.5141 B   0  0  0  0  0  0  0  0  0  0  0  0
    2.5821    1.6330    1.9365 N   0  0  0  0  0  0  0  0  0  0  0  0
    1.4721   -1.5550   -3.5156 B   0  0  0  0  0  0  0  0  0  0  0  0
   -2.1026    1.7542    2.7608 N   0  0  0  0  0  0  0  0  0  0  0  0
    2.0408    0.7119   -3.2115 B   0  0  0  0  0  0  0  0  0  0  0  0
   -2.7209   -1.3417    2.3206 N   0  0  0  0  0  0  0  0  0  0  0  0
    0.6586   -0.5389   -4.4869 B   0  0  0  0  0  0  0  0  0  0  0  0
   -0.1687   -3.7594   -1.3565 N   0  0  0  0  0  0  0  0  0  0  0  0
    0.4856   -2.1056    3.4338 B   0  0  0  0  0  0  0  0  0  0  0  0
   -0.5873   -1.2050    3.8245 N   0  0  0  0  0  0  0  0  0  0  0  0
   -3.2244   -1.4514    1.0003 B   0  0  0  0  0  0  0  0  0  0  0  0
    2.6713   -0.8555    2.6211 N   0  0  0  0  0  0  0  0  0  0  0  0
    1.8786    3.3393   -0.1064 B   0  0  0  0  0  0  0  0  0  0  0  0
    2.8769   -2.3318   -0.7936 N   0  0  0  0  0  0  0  0  0  0  0  0
  1  2  1  0  0  0  0
  2  3  1  0  0  0  0
  2  4  4  0  0  0  0
  4  5  2  0  0  0  0
  4  6  1  0  0  0  0
  6  7  2  0  0  0  0
  7  8  4  0  0  0  0
  8  9  4  0  0  0  0
  9 10  4  0  0  0  0
 10 11  4  0  0  0  0
 11 12  1  0  0  0  0
 12 13  1  0  0  0  0
 13 14  4  0  0  0  0
 14 15  4  0  0  0  0
 15 16  4  0  0  0  0
 16 17  1  0  0  0  0
 17 18  1  0  0  0  0
 18 19  1  0  0  0  0
 19 20  1  0  0  0  0
 20 21  1  0  0  0  0
 17 22  1  0  0  0  0
 21 22  1  0  0  0  0
 16 23  4  0  0  0  0
 13 24  4  0  0  0  0
 23 24  4  0  0  0  0
 11 25  4  0  0  0  0
  8 26  4  0  0  0  0
 25 26  4  0  0  0  0
  6 27  1  0  0  0  0
 26 27  1  0  0  0  0
 27 28  1  0  0  0  0
 28 29  1  0  0  0  0
 29 30  1  0  0  0  0
 30 31  1  0  0  0  0
 28 32  1  0  0  0  0
 31 32  1  0  0  0  0
  1 33  1  0  0  0  0
  1 34  1  0  0  0  0
  1 35  1  0  0  0  0
  3 36  1  0  0  0  0
  3 37  1  0  0  0  0
  3 38  1  0  0  0  0
  7 39  1  0  0  0  0
  9 40  1  0  0  0  0
 12 41  1  0  0  0  0
 14 42  1  0  0  0  0
 15 43  1  0  0  0  0
 18 44  1  0  0  0  0
 18 45  1  0  0  0  0
 19 46  1  0  0  0  0
 19 47  1  0  0  0  0
 20 48  1  0  0  0  0
 21 49  1  0  0  0  0
 21 50  1  0  0  0  0
 22 51  1  0  0  0  0
 22 52  1  0  0  0  0
 23 53  1  0  0  0  0
 28 54  1  0  0  0  0
 29 55  1  0  0  0  0
 29 56  1  0  0  0  0
 30 57  1  0  0  0  0
 30 58  1  0  0  0  0
 31 59  1  0  0  0  0
 31 60  1  0  0  0  0
 32 61  1  0  0  0  0
 32 62  1  0  0  0  0
 70 71  1  0  0  0  0
 73 74  1  0  0  0  0
 69 76  1  0  0  0  0
 72 77  1  0  0  0  0
 76 79  1  0  0  0  0
 78 81  1  0  0  0  0
 80 82  1  0  0  0  0
 70 83  1  0  0  0  0
 73 84  1  0  0  0  0
 69 85  1  0  0  0  0
 82 86  1  0  0  0  0
 84 87  1  0  0  0  0
 68 89  1  0  0  0  0
 76 90  1  0  0  0  0
 85 90  1  0  0  0  0
 89 92  1  0  0  0  0
 66 93  1  0  0  0  0
 88 93  1  0  0  0  0
 90 95  1  0  0  0  0
 77 96  1  0  0  0  0
 83 97  1  0  0  0  0
 96 97  1  0  0  0  0
 78 98  1  0  0  0  0
 85 98  1  0  0  0  0
 81 99  1  0  0  0  0
 67100  1  0  0  0  0
 74101  1  0  0  0  0
 78101  1  0  0  0  0
 69102  1  0  0  0  0
 87102  1  0  0  0  0
101102  1  0  0  0  0
 67103  1  0  0  0  0
100103  1  0  0  0  0
 79104  1  0  0  0  0
 86104  1  0  0  0  0
 92105  1  0  0  0  0
 94105  1  0  0  0  0
 97105  1  0  0  0  0
 89106  1  0  0  0  0
100106  1  0  0  0  0
 83107  1  0  0  0  0
103108  1  0  0  0  0
 63109  1  0  0  0  0
 64109  1  0  0  0  0
 88109  1  0  0  0  0
 65110  1  0  0  0  0
 99110  1  0  0  0  0
 71111  1  0  0  0  0
 75111  1  0  0  0  0
 99111  1  0  0  0  0
 73112  1  0  0  0  0
 84112  1  0  0  0  0
 71113  1  0  0  0  0
 81113  1  0  0  0  0
 74114  1  0  0  0  0
107114  1  0  0  0  0
113114  1  0  0  0  0
 63115  1  0  0  0  0
108115  1  0  0  0  0
 72116  1  0  0  0  0
108116  1  0  0  0  0
 82117  1  0  0  0  0
 91118  1  0  0  0  0
104118  1  0  0  0  0
 92119  1  0  0  0  0
106119  1  0  0  0  0
 94120  1  0  0  0  0
107120  1  0  0  0  0
112120  1  0  0  0  0
 64121  1  0  0  0  0
 65121  1  0  0  0  0
 88121  1  0  0  0  0
 64122  1  0  0  0  0
 95122  1  0  0  0  0
117122  1  0  0  0  0
 66123  1  0  0  0  0
 77123  1  0  0  0  0
 79124  1  0  0  0  0
 87124  1  0  0  0  0
118124  1  0  0  0  0
 66125  1  0  0  0  0
 75125  1  0  0  0  0
110125  1  0  0  0  0
 68126  1  0  0  0  0
 91126  1  0  0  0  0
 70127  1  0  0  0  0
 75127  1  0  0  0  0
123127  1  0  0  0  0
 72128  1  0  0  0  0
 96128  1  0  0  0  0
119128  1  0  0  0  0
 67129  1  0  0  0  0
 80129  1  0  0  0  0
 86130  1  0  0  0  0
 91130  1  0  0  0  0
129130  1  0  0  0  0
 68131  1  0  0  0  0
 94131  1  0  0  0  0
126131  1  0  0  0  0
 63132  1  0  0  0  0
 80132  1  0  0  0  0
117132  1  0  0  0  0
 65133  1  0  0  0  0
 95133  1  0  0  0  0
 98133  1  0  0  0  0
 93134  1  0  0  0  0
115134  1  0  0  0  0
116134  1  0  0  0  0
M  END
