 xtb: 6.7.1pre (5071a88)
          08312622223D

192230  0     0  0            999 V2000
   -9.7605    3.7091   16.6927 C   0  0  0  0  0  0  0  0  0  0  0  0
   -9.2925    4.5595   15.6549 O   0  0  0  0  0  0  0  0  0  0  0  0
   -8.2336    3.9723   14.8954 C   0  0  0  0  0  0  0  0  0  0  0  0
   -6.8719    4.1945   15.5584 C   0  0  0  0  0  0  0  0  0  0  0  0
   -5.8153    3.6223   14.7874 O   0  0  0  0  0  0  0  0  0  0  0  0
   -5.6099    2.2110   15.0284 C   0  0  0  0  0  0  0  0  0  0  0  0
   -4.4296    2.1281   16.0268 C   0  0  0  0  0  0  0  0  0  0  0  0
   -3.7747    0.7646   16.4149 C   0  0  0  0  0  0  0  0  0  0  0  0
   -4.3111   -0.5044   15.7594 C   0  0  0  0  0  0  0  0  0  0  0  0
   -5.8192   -0.6992   15.6914 C   0  0  0  0  0  0  0  0  0  0  0  0
   -6.3791   -0.8096   14.2386 C   0  0  0  0  0  0  0  0  0  0  0  0
   -6.0380   -2.2029   13.6824 C   0  0  0  0  0  0  0  0  0  0  0  0
   -6.0977    0.3676   13.2083 C   0  0  0  0  0  0  0  0  0  0  0  0
   -7.4307    0.9196   12.9583 O   0  0  0  0  0  0  0  0  0  0  0  0
   -5.6336   -0.1112   11.7773 C   0  0  0  0  0  0  0  0  0  0  0  0
   -6.4326   -0.6543   11.0085 O   0  0  0  0  0  0  0  0  0  0  0  0
   -4.1881    0.1731   11.2732 C   0  0  0  0  0  0  0  0  0  0  0  0
   -3.7628    1.3208   11.3515 O   0  0  0  0  0  0  0  0  0  0  0  0
   -3.4418   -0.8595   10.6681 N   0  0  0  0  0  0  0  0  0  0  0  0
   -4.0825   -2.0840   10.1950 C   0  0  0  0  0  0  0  0  0  0  0  0
   -3.1046   -3.1432    9.7132 C   0  0  0  0  0  0  0  0  0  0  0  0
   -2.1358   -2.6148    8.6579 C   0  0  0  0  0  0  0  0  0  0  0  0
   -1.8621   -1.1120    8.7605 C   0  0  0  0  0  0  0  0  0  0  0  0
   -2.0710   -0.5365   10.1656 C   0  0  0  0  0  0  0  0  0  0  0  0
   -0.9281   -1.0003   11.1107 C   0  0  0  0  0  0  0  0  0  0  0  0
   -0.6304   -2.1694   11.3287 O   0  0  0  0  0  0  0  0  0  0  0  0
   -0.3353    0.0554   11.7445 O   0  0  0  0  0  0  0  0  0  0  0  0
    0.0480   -0.1415   13.1580 C   0  0  0  0  0  0  0  0  0  0  0  0
   -1.2419    0.2253   14.0083 C   0  0  0  0  0  0  0  0  0  0  0  0
   -1.5579    1.7008   13.6724 C   0  0  0  0  0  0  0  0  0  0  0  0
   -2.2994   -0.6305   13.5089 O   0  0  0  0  0  0  0  0  0  0  0  0
   -2.1719   -2.0381   13.7772 C   0  0  0  0  0  0  0  0  0  0  0  0
   -1.1805    0.0761   15.5616 C   0  0  0  0  0  0  0  0  0  0  0  0
   -2.1939    0.8620   16.4745 C   0  0  0  0  0  0  0  0  0  0  0  0
    1.2769    0.7494   13.4253 C   0  0  0  0  0  0  0  0  0  0  0  0
    2.5187    0.1751   12.7878 C   0  0  0  0  0  0  0  0  0  0  0  0
    3.6253   -0.3049   13.3784 C   0  0  0  0  0  0  0  0  0  0  0  0
    3.8802   -0.3806   14.8005 C   0  0  0  0  0  0  0  0  0  0  0  0
    4.9696   -0.8803   15.4097 C   0  0  0  0  0  0  0  0  0  0  0  0
    6.1218   -1.4924   14.7827 C   0  0  0  0  0  0  0  0  0  0  0  0
    7.2748   -1.8579   15.3802 C   0  0  0  0  0  0  0  0  0  0  0  0
    7.6044   -1.6955   16.8407 C   0  0  0  0  0  0  0  0  0  0  0  0
    8.3797   -2.5054   14.5575 C   0  0  0  0  0  0  0  0  0  0  0  0
    8.9827   -1.6079   13.4467 C   0  0  0  0  0  0  0  0  0  0  0  0
    9.9946   -2.4327   12.6445 C   0  0  0  0  0  0  0  0  0  0  0  0
    9.6033   -0.3186   14.0438 C   0  0  0  0  0  0  0  0  0  0  0  0
   10.1136    0.7233   13.0324 C   0  0  0  0  0  0  0  0  0  0  0  0
   11.2771    0.2486   12.3616 O   0  0  0  0  0  0  0  0  0  0  0  0
   12.4902    0.5840   13.0179 C   0  0  0  0  0  0  0  0  0  0  0  0
    9.0103    1.1331   12.0349 C   0  0  0  0  0  0  0  0  0  0  0  0
    9.0858    0.9301   10.8220 O   0  0  0  0  0  0  0  0  0  0  0  0
    7.7976    1.8216   12.6136 C   0  0  0  0  0  0  0  0  0  0  0  0
   -5.2749    1.5756   13.6779 C   0  0  0  0  0  0  0  0  0  0  0  0
   -8.9658    3.4914   17.4113 H   0  0  0  0  0  0  0  0  0  0  0  0
  -10.5695    4.2239   17.2182 H   0  0  0  0  0  0  0  0  0  0  0  0
  -10.1562    2.7780   16.2756 H   0  0  0  0  0  0  0  0  0  0  0  0
   -8.2279    4.4551   13.9116 H   0  0  0  0  0  0  0  0  0  0  0  0
   -8.4334    2.9113   14.7090 H   0  0  0  0  0  0  0  0  0  0  0  0
   -6.6848    5.2723   15.6234 H   0  0  0  0  0  0  0  0  0  0  0  0
   -6.8477    3.8220   16.5883 H   0  0  0  0  0  0  0  0  0  0  0  0
   -6.5312    1.8037   15.4445 H   0  0  0  0  0  0  0  0  0  0  0  0
   -4.7681    2.5983   16.9622 H   0  0  0  0  0  0  0  0  0  0  0  0
   -3.6586    2.8280   15.6817 H   0  0  0  0  0  0  0  0  0  0  0  0
   -4.0649    0.6502   17.4723 H   0  0  0  0  0  0  0  0  0  0  0  0
   -3.9653   -0.5426   14.7459 H   0  0  0  0  0  0  0  0  0  0  0  0
   -3.8795   -1.3634   16.2872 H   0  0  0  0  0  0  0  0  0  0  0  0
   -6.3605    0.0434   16.2806 H   0  0  0  0  0  0  0  0  0  0  0  0
   -6.0554   -1.6387   16.2117 H   0  0  0  0  0  0  0  0  0  0  0  0
   -7.4691   -0.8439   14.3902 H   0  0  0  0  0  0  0  0  0  0  0  0
   -4.9830   -2.2840   13.4186 H   0  0  0  0  0  0  0  0  0  0  0  0
   -6.2570   -2.9859   14.4169 H   0  0  0  0  0  0  0  0  0  0  0  0
   -6.6407   -2.4355   12.7994 H   0  0  0  0  0  0  0  0  0  0  0  0
   -7.8608    0.3225   12.3118 H   0  0  0  0  0  0  0  0  0  0  0  0
   -4.7515   -1.8030    9.3727 H   0  0  0  0  0  0  0  0  0  0  0  0
   -4.6978   -2.4990   10.9979 H   0  0  0  0  0  0  0  0  0  0  0  0
   -2.5404   -3.5276   10.5698 H   0  0  0  0  0  0  0  0  0  0  0  0
   -3.6527   -4.0028    9.3099 H   0  0  0  0  0  0  0  0  0  0  0  0
   -1.1937   -3.1714    8.7325 H   0  0  0  0  0  0  0  0  0  0  0  0
   -2.5298   -2.8292    7.6567 H   0  0  0  0  0  0  0  0  0  0  0  0
   -2.5464   -0.5951    8.0742 H   0  0  0  0  0  0  0  0  0  0  0  0
   -0.8474   -0.9019    8.4012 H   0  0  0  0  0  0  0  0  0  0  0  0
   -1.9744    0.5526   10.0782 H   0  0  0  0  0  0  0  0  0  0  0  0
    0.3448   -1.1822   13.3145 H   0  0  0  0  0  0  0  0  0  0  0  0
   -1.6430    1.8764   12.5970 H   0  0  0  0  0  0  0  0  0  0  0  0
   -2.4964    2.0340   14.0943 H   0  0  0  0  0  0  0  0  0  0  0  0
   -0.7888    2.3744   14.0650 H   0  0  0  0  0  0  0  0  0  0  0  0
   -2.6031   -2.2933   14.7458 H   0  0  0  0  0  0  0  0  0  0  0  0
   -2.7409   -2.5794   13.0180 H   0  0  0  0  0  0  0  0  0  0  0  0
   -1.1462   -2.4048   13.7670 H   0  0  0  0  0  0  0  0  0  0  0  0
   -0.1881    0.4085   15.8904 H   0  0  0  0  0  0  0  0  0  0  0  0
   -1.2302   -0.9777   15.8529 H   0  0  0  0  0  0  0  0  0  0  0  0
   -1.9296    0.5457   17.4958 H   0  0  0  0  0  0  0  0  0  0  0  0
   -1.8987    1.9190   16.4560 H   0  0  0  0  0  0  0  0  0  0  0  0
    1.4199    0.8910   14.4975 H   0  0  0  0  0  0  0  0  0  0  0  0
    1.1323    1.7433   12.9850 H   0  0  0  0  0  0  0  0  0  0  0  0
    2.4945    0.1560   11.6970 H   0  0  0  0  0  0  0  0  0  0  0  0
    4.4062   -0.6711   12.7149 H   0  0  0  0  0  0  0  0  0  0  0  0
    3.1121    0.0233   15.4556 H   0  0  0  0  0  0  0  0  0  0  0  0
    4.9745   -0.8301   16.4959 H   0  0  0  0  0  0  0  0  0  0  0  0
    6.0301   -1.6885   13.7162 H   0  0  0  0  0  0  0  0  0  0  0  0
    7.7322   -2.6784   17.3062 H   0  0  0  0  0  0  0  0  0  0  0  0
    8.5398   -1.1371   16.9548 H   0  0  0  0  0  0  0  0  0  0  0  0
    6.8434   -1.1571   17.4086 H   0  0  0  0  0  0  0  0  0  0  0  0
    9.1865   -2.8423   15.2222 H   0  0  0  0  0  0  0  0  0  0  0  0
    7.9715   -3.4212   14.1080 H   0  0  0  0  0  0  0  0  0  0  0  0
    8.1752   -1.3288   12.7593 H   0  0  0  0  0  0  0  0  0  0  0  0
   10.2860   -1.9200   11.7236 H   0  0  0  0  0  0  0  0  0  0  0  0
   10.8968   -2.6359   13.2307 H   0  0  0  0  0  0  0  0  0  0  0  0
    9.5638   -3.3942   12.3441 H   0  0  0  0  0  0  0  0  0  0  0  0
    8.8576    0.1778   14.6754 H   0  0  0  0  0  0  0  0  0  0  0  0
   10.4252   -0.6094   14.7098 H   0  0  0  0  0  0  0  0  0  0  0  0
   10.3719    1.6456   13.5705 H   0  0  0  0  0  0  0  0  0  0  0  0
   13.3183    0.1518   12.4497 H   0  0  0  0  0  0  0  0  0  0  0  0
   12.6205    1.6701   13.0471 H   0  0  0  0  0  0  0  0  0  0  0  0
   12.5140    0.1747   14.0316 H   0  0  0  0  0  0  0  0  0  0  0  0
    7.2087    2.2647   11.8054 H   0  0  0  0  0  0  0  0  0  0  0  0
    7.1773    1.0996   13.1480 H   0  0  0  0  0  0  0  0  0  0  0  0
    8.1127    2.6221   13.2874 H   0  0  0  0  0  0  0  0  0  0  0  0
   -4.2360    1.2727   13.6826 H   0  0  0  0  0  0  0  0  0  0  0  0
   -5.3630    2.3572   12.9101 H   0  0  0  0  0  0  0  0  0  0  0  0
    3.4592   -1.4546    1.6280 B   0  0  0  0  0  0  0  0  0  0  0  0
    3.4564    1.1299    0.9400 N   0  0  0  0  0  0  0  0  0  0  0  0
    2.5399    2.3625   -1.2610 B   0  0  0  0  0  0  0  0  0  0  0  0
    2.2931   -0.6416   -2.7306 N   0  0  0  0  0  0  0  0  0  0  0  0
    0.6905   -3.5611    2.7027 B   0  0  0  0  0  0  0  0  0  0  0  0
   -2.9397   -2.6548    1.7095 N   0  0  0  0  0  0  0  0  0  0  0  0
   -1.0382    4.0851    1.8312 B   0  0  0  0  0  0  0  0  0  0  0  0
   -0.6193    0.0177   -3.9419 N   0  0  0  0  0  0  0  0  0  0  0  0
   -0.4737    1.4453   -4.0917 B   0  0  0  0  0  0  0  0  0  0  0  0
    1.2096   -3.7868   -1.7394 N   0  0  0  0  0  0  0  0  0  0  0  0
   -3.8445    2.2094   -0.4937 B   0  0  0  0  0  0  0  0  0  0  0  0
   -2.7729    2.7636   -1.2118 N   0  0  0  0  0  0  0  0  0  0  0  0
    1.4057    0.8181   -4.8893 B   0  0  0  0  0  0  0  0  0  0  0  0
   -0.2358    3.3642    2.8335 N   0  0  0  0  0  0  0  0  0  0  0  0
    0.8983   -2.8798   -2.8138 B   0  0  0  0  0  0  0  0  0  0  0  0
   -0.4918    3.7666   -1.0101 N   0  0  0  0  0  0  0  0  0  0  0  0
   -0.8060    2.1823    3.2819 B   0  0  0  0  0  0  0  0  0  0  0  0
    1.6561   -1.2744    3.5036 N   0  0  0  0  0  0  0  0  0  0  0  0
   -0.2485    3.4699   -2.3799 B   0  0  0  0  0  0  0  0  0  0  0  0
    1.3087    0.0689    3.8170 N   0  0  0  0  0  0  0  0  0  0  0  0
   -1.5974   -0.5599   -3.0847 B   0  0  0  0  0  0  0  0  0  0  0  0
   -3.8325    1.7768    0.8316 N   0  0  0  0  0  0  0  0  0  0  0  0
    0.3376    4.4960    1.1839 B   0  0  0  0  0  0  0  0  0  0  0  0
    0.0433   -0.0140    4.4567 N   0  0  0  0  0  0  0  0  0  0  0  0
   -2.7088    2.2268    1.6012 B   0  0  0  0  0  0  0  0  0  0  0  0
    3.7727   -0.1326   -0.7655 N   0  0  0  0  0  0  0  0  0  0  0  0
   -2.2534   -3.6394    1.0085 B   0  0  0  0  0  0  0  0  0  0  0  0
    1.0558    3.7334    2.2357 N   0  0  0  0  0  0  0  0  0  0  0  0
   -1.8256   -0.7775    3.2198 B   0  0  0  0  0  0  0  0  0  0  0  0
   -2.4368   -3.6019   -0.4508 N   0  0  0  0  0  0  0  0  0  0  0  0
    3.0187   -1.0737   -1.5028 B   0  0  0  0  0  0  0  0  0  0  0  0
   -3.1580   -1.2526   -0.3843 N   0  0  0  0  0  0  0  0  0  0  0  0
    2.0347    2.9223    1.5617 B   0  0  0  0  0  0  0  0  0  0  0  0
   -0.5074   -2.9001   -2.4328 N   0  0  0  0  0  0  0  0  0  0  0  0
   -1.6735   -2.1129   -2.4916 B   0  0  0  0  0  0  0  0  0  0  0  0
    0.5901    3.9646   -0.1102 N   0  0  0  0  0  0  0  0  0  0  0  0
    1.0903    2.9596   -3.1825 B   0  0  0  0  0  0  0  0  0  0  0  0
    0.0774   -4.3592    1.7213 N   0  0  0  0  0  0  0  0  0  0  0  0
   -1.7840    3.4524   -0.4082 B   0  0  0  0  0  0  0  0  0  0  0  0
   -2.0135    3.4185    1.0316 N   0  0  0  0  0  0  0  0  0  0  0  0
    1.4659   -4.2121    1.4991 B   0  0  0  0  0  0  0  0  0  0  0  0
   -0.7980    1.0642    4.1946 N   0  0  0  0  0  0  0  0  0  0  0  0
   -2.6662   -2.4021   -1.1753 B   0  0  0  0  0  0  0  0  0  0  0  0
   -1.0744   -4.4843    0.9912 N   0  0  0  0  0  0  0  0  0  0  0  0
   -2.5037    0.4914   -2.1091 B   0  0  0  0  0  0  0  0  0  0  0  0
    2.3527   -3.8873    0.4531 N   0  0  0  0  0  0  0  0  0  0  0  0
    3.9123   -0.2024    0.7259 B   0  0  0  0  0  0  0  0  0  0  0  0
    1.9285    1.9570   -2.4651 N   0  0  0  0  0  0  0  0  0  0  0  0
    1.0012    2.2544   -4.6225 B   0  0  0  0  0  0  0  0  0  0  0  0
   -4.1860    0.8290   -0.3475 N   0  0  0  0  0  0  0  0  0  0  0  0
   -1.3389    2.4537   -3.1149 B   0  0  0  0  0  0  0  0  0  0  0  0
   -2.3596    1.9326   -2.3058 N   0  0  0  0  0  0  0  0  0  0  0  0
    3.0731   -2.6455    0.6011 B   0  0  0  0  0  0  0  0  0  0  0  0
    2.3352   -3.6737   -0.9709 N   0  0  0  0  0  0  0  0  0  0  0  0
    2.2179    0.5458    2.8084 B   0  0  0  0  0  0  0  0  0  0  0  0
   -2.0264    0.6119    3.6015 N   0  0  0  0  0  0  0  0  0  0  0  0
   -1.1017   -4.1838   -0.4410 B   0  0  0  0  0  0  0  0  0  0  0  0
   -3.2181    0.0417   -0.9586 N   0  0  0  0  0  0  0  0  0  0  0  0
    3.4478    1.2586   -0.5141 B   0  0  0  0  0  0  0  0  0  0  0  0
    2.5821    1.6330    1.9365 N   0  0  0  0  0  0  0  0  0  0  0  0
    1.4721   -1.5550   -3.5156 B   0  0  0  0  0  0  0  0  0  0  0  0
   -2.1026    1.7542    2.7608 N   0  0  0  0  0  0  0  0  0  0  0  0
    2.0408    0.7119   -3.2115 B   0  0  0  0  0  0  0  0  0  0  0  0
   -2.7209   -1.3417    2.3206 N   0  0  0  0  0  0  0  0  0  0  0  0
    0.6586   -0.5389   -4.4869 B   0  0  0  0  0  0  0  0  0  0  0  0
   -0.1687   -3.7594   -1.3565 N   0  0  0  0  0  0  0  0  0  0  0  0
    0.4856   -2.1056    3.4338 B   0  0  0  0  0  0  0  0  0  0  0  0
   -0.5873   -1.2050    3.8245 N   0  0  0  0  0  0  0  0  0  0  0  0
   -3.2244   -1.4514    1.0003 B   0  0  0  0  0  0  0  0  0  0  0  0
    2.6713   -0.8555    2.6211 N   0  0  0  0  0  0  0  0  0  0  0  0
    1.8786    3.3393   -0.1064 B   0  0  0  0  0  0  0  0  0  0  0  0
    2.8769   -2.3318   -0.7936 N   0  0  0  0  0  0  0  0  0  0  0  0
  1  2  1  0  0  0  0
  2  3  1  0  0  0  0
  3  4  1  0  0  0  0
  4  5  1  0  0  0  0
  5  6  1  0  0  0  0
  6  7  1  0  0  0  0
  7  8  1  0  0  0  0
  8  9  1  0  0  0  0
  9 10  1  0  0  0  0
 10 11  1  0  0  0  0
 11 12  1  0  0  0  0
 11 13  1  0  0  0  0
 13 14  1  0  0  0  0
 13 15  1  0  0  0  0
 15 16  2  0  0  0  0
 15 17  1  0  0  0  0
 17 18  2  0  0  0  0
 17 19  4  0  0  0  0
 19 20  1  0  0  0  0
 20 21  1  0  0  0  0
 21 22  1  0  0  0  0
 22 23  1  0  0  0  0
 19 24  1  0  0  0  0
 23 24  1  0  0  0  0
 24 25  1  0  0  0  0
 25 26  2  0  0  0  0
 25 27  1  0  0  0  0
 27 28  1  0  0  0  0
 28 29  1  0  0  0  0
 29 30  1  0  0  0  0
 29 31  1  0  0  0  0
 31 32  1  0  0  0  0
 29 33  1  0  0  0  0
  8 34  1  0  0  0  0
 33 34  1  0  0  0  0
 28 35  1  0  0  0  0
 35 36  1  0  0  0  0
 36 37  2  0  0  0  0
 37 38  1  0  0  0  0
 38 39  2  0  0  0  0
 39 40  1  0  0  0  0
 40 41  2  0  0  0  0
 41 42  1  0  0  0  0
 41 43  1  0  0  0  0
 43 44  1  0  0  0  0
 44 45  1  0  0  0  0
 44 46  1  0  0  0  0
 46 47  1  0  0  0  0
 47 48  1  0  0  0  0
 48 49  1  0  0  0  0
 47 50  1  0  0  0  0
 50 51  2  0  0  0  0
 50 52  1  0  0  0  0
  6 53  1  0  0  0  0
 13 53  1  0  0  0  0
  1 54  1  0  0  0  0
  1 55  1  0  0  0  0
  1 56  1  0  0  0  0
  3 57  1  0  0  0  0
  3 58  1  0  0  0  0
  4 59  1  0  0  0  0
  4 60  1  0  0  0  0
  6 61  1  0  0  0  0
  7 62  1  0  0  0  0
  7 63  1  0  0  0  0
  8 64  1  0  0  0  0
  9 65  1  0  0  0  0
  9 66  1  0  0  0  0
 10 67  1  0  0  0  0
 10 68  1  0  0  0  0
 11 69  1  0  0  0  0
 12 70  1  0  0  0  0
 12 71  1  0  0  0  0
 12 72  1  0  0  0  0
 14 73  1  0  0  0  0
 20 74  1  0  0  0  0
 20 75  1  0  0  0  0
 21 76  1  0  0  0  0
 21 77  1  0  0  0  0
 22 78  1  0  0  0  0
 22 79  1  0  0  0  0
 23 80  1  0  0  0  0
 23 81  1  0  0  0  0
 24 82  1  0  0  0  0
 28 83  1  0  0  0  0
 30 84  1  0  0  0  0
 30 85  1  0  0  0  0
 30 86  1  0  0  0  0
 32 87  1  0  0  0  0
 32 88  1  0  0  0  0
 32 89  1  0  0  0  0
 33 90  1  0  0  0  0
 33 91  1  0  0  0  0
 34 92  1  0  0  0  0
 34 93  1  0  0  0  0
 35 94  1  0  0  0  0
 35 95  1  0  0  0  0
 36 96  1  0  0  0  0
 37 97  1  0  0  0  0
 38 98  1  0  0  0  0
 39 99  1  0  0  0  0
 40100  1  0  0  0  0
 42101  1  0  0  0  0
 42102  1  0  0  0  0
 42103  1  0  0  0  0
 43104  1  0  0  0  0
 43105  1  0  0  0  0
 44106  1  0  0  0  0
 45107  1  0  0  0  0
 45108  1  0  0  0  0
 45109  1  0  0  0  0
 46110  1  0  0  0  0
 46111  1  0  0  0  0
 47112  1  0  0  0  0
 49113  1  0  0  0  0
 49114  1  0  0  0  0
 49115  1  0  0  0  0
 52116  1  0  0  0  0
 52117  1  0  0  0  0
 52118  1  0  0  0  0
 53119  1  0  0  0  0
 53120  1  0  0  0  0
128129  1  0  0  0  0
131132  1  0  0  0  0
127134  1  0  0  0  0
130135  1  0  0  0  0
134137  1  0  0  0  0
136139  1  0  0  0  0
138140  1  0  0  0  0
128141  1  0  0  0  0
131142  1  0  0  0  0
127143  1  0  0  0  0
140144  1  0  0  0  0
142145  1  0  0  0  0
126147  1  0  0  0  0
134148  1  0  0  0  0
143148  1  0  0  0  0
147150  1  0  0  0  0
124151  1  0  0  0  0
146151  1  0  0  0  0
148153  1  0  0  0  0
135154  1  0  0  0  0
141155  1  0  0  0  0
154155  1  0  0  0  0
136156  1  0  0  0  0
143156  1  0  0  0  0
139157  1  0  0  0  0
125158  1  0  0  0  0
132159  1  0  0  0  0
136159  1  0  0  0  0
127160  1  0  0  0  0
145160  1  0  0  0  0
159160  1  0  0  0  0
125161  1  0  0  0  0
158161  1  0  0  0  0
137162  1  0  0  0  0
144162  1  0  0  0  0
150163  1  0  0  0  0
152163  1  0  0  0  0
155163  1  0  0  0  0
147164  1  0  0  0  0
158164  1  0  0  0  0
141165  1  0  0  0  0
161166  1  0  0  0  0
121167  1  0  0  0  0
122167  1  0  0  0  0
146167  1  0  0  0  0
123168  1  0  0  0  0
157168  1  0  0  0  0
129169  1  0  0  0  0
133169  1  0  0  0  0
157169  1  0  0  0  0
131170  1  0  0  0  0
142170  1  0  0  0  0
129171  1  0  0  0  0
139171  1  0  0  0  0
132172  1  0  0  0  0
165172  1  0  0  0  0
171172  1  0  0  0  0
121173  1  0  0  0  0
166173  1  0  0  0  0
130174  1  0  0  0  0
166174  1  0  0  0  0
140175  1  0  0  0  0
149176  1  0  0  0  0
162176  1  0  0  0  0
150177  1  0  0  0  0
164177  1  0  0  0  0
152178  1  0  0  0  0
165178  1  0  0  0  0
170178  1  0  0  0  0
122179  1  0  0  0  0
123179  1  0  0  0  0
146179  1  0  0  0  0
122180  1  0  0  0  0
153180  1  0  0  0  0
175180  1  0  0  0  0
124181  1  0  0  0  0
135181  1  0  0  0  0
137182  1  0  0  0  0
145182  1  0  0  0  0
176182  1  0  0  0  0
124183  1  0  0  0  0
133183  1  0  0  0  0
168183  1  0  0  0  0
126184  1  0  0  0  0
149184  1  0  0  0  0
128185  1  0  0  0  0
133185  1  0  0  0  0
181185  1  0  0  0  0
130186  1  0  0  0  0
154186  1  0  0  0  0
177186  1  0  0  0  0
125187  1  0  0  0  0
138187  1  0  0  0  0
144188  1  0  0  0  0
149188  1  0  0  0  0
187188  1  0  0  0  0
126189  1  0  0  0  0
152189  1  0  0  0  0
184189  1  0  0  0  0
121190  1  0  0  0  0
138190  1  0  0  0  0
175190  1  0  0  0  0
123191  1  0  0  0  0
153191  1  0  0  0  0
156191  1  0  0  0  0
151192  1  0  0  0  0
173192  1  0  0  0  0
174192  1  0  0  0  0
M  END
