 xtb: 6.7.1pre (5071a88)
          08312621133D

192230  0     0  0            999 V2000
   -9.7605    3.7091   17.4756 C   0  0  0  0  0  0  0  0  0  0  0  0
   -9.2925    4.5595   16.4378 O   0  0  0  0  0  0  0  0  0  0  0  0
   -8.2336    3.9723   15.6782 C   0  0  0  0  0  0  0  0  0  0  0  0
   -6.8719    4.1945   16.3412 C   0  0  0  0  0  0  0  0  0  0  0  0
   -5.8153    3.6223   15.5702 O   0  0  0  0  0  0  0  0  0  0  0  0
   -5.6099    2.2110   15.8112 C   0  0  0  0  0  0  0  0  0  0  0  0
   -4.4296    2.1281   16.8096 C   0  0  0  0  0  0  0  0  0  0  0  0
   -3.7747    0.7646   17.1977 C   0  0  0  0  0  0  0  0  0  0  0  0
   -4.3111   -0.5044   16.5422 C   0  0  0  0  0  0  0  0  0  0  0  0
   -5.8192   -0.6992   16.4742 C   0  0  0  0  0  0  0  0  0  0  0  0
   -6.3791   -0.8096   15.0214 C   0  0  0  0  0  0  0  0  0  0  0  0
   -6.0380   -2.2029   14.4652 C   0  0  0  0  0  0  0  0  0  0  0  0
   -6.0977    0.3676   13.9911 C   0  0  0  0  0  0  0  0  0  0  0  0
   -7.4307    0.9196   13.7411 O   0  0  0  0  0  0  0  0  0  0  0  0
   -5.6336   -0.1112   12.5601 C   0  0  0  0  0  0  0  0  0  0  0  0
   -6.4326   -0.6543   11.7913 O   0  0  0  0  0  0  0  0  0  0  0  0
   -4.1881    0.1731   12.0560 C   0  0  0  0  0  0  0  0  0  0  0  0
   -3.7628    1.3208   12.1343 O   0  0  0  0  0  0  0  0  0  0  0  0
   -3.4418   -0.8595   11.4509 N   0  0  0  0  0  0  0  0  0  0  0  0
   -4.0825   -2.0840   10.9778 C   0  0  0  0  0  0  0  0  0  0  0  0
   -3.1046   -3.1432   10.4960 C   0  0  0  0  0  0  0  0  0  0  0  0
   -2.1358   -2.6148    9.4407 C   0  0  0  0  0  0  0  0  0  0  0  0
   -1.8621   -1.1120    9.5433 C   0  0  0  0  0  0  0  0  0  0  0  0
   -2.0710   -0.5365   10.9485 C   0  0  0  0  0  0  0  0  0  0  0  0
   -0.9281   -1.0003   11.8935 C   0  0  0  0  0  0  0  0  0  0  0  0
   -0.6304   -2.1694   12.1115 O   0  0  0  0  0  0  0  0  0  0  0  0
   -0.3353    0.0554   12.5273 O   0  0  0  0  0  0  0  0  0  0  0  0
    0.0480   -0.1415   13.9408 C   0  0  0  0  0  0  0  0  0  0  0  0
   -1.2419    0.2253   14.7911 C   0  0  0  0  0  0  0  0  0  0  0  0
   -1.5579    1.7008   14.4552 C   0  0  0  0  0  0  0  0  0  0  0  0
   -2.2994   -0.6305   14.2917 O   0  0  0  0  0  0  0  0  0  0  0  0
   -2.1719   -2.0381   14.5600 C   0  0  0  0  0  0  0  0  0  0  0  0
   -1.1805    0.0761   16.3444 C   0  0  0  0  0  0  0  0  0  0  0  0
   -2.1939    0.8620   17.2573 C   0  0  0  0  0  0  0  0  0  0  0  0
    1.2769    0.7494   14.2081 C   0  0  0  0  0  0  0  0  0  0  0  0
    2.5187    0.1751   13.5706 C   0  0  0  0  0  0  0  0  0  0  0  0
    3.6253   -0.3049   14.1612 C   0  0  0  0  0  0  0  0  0  0  0  0
    3.8802   -0.3806   15.5833 C   0  0  0  0  0  0  0  0  0  0  0  0
    4.9696   -0.8803   16.1926 C   0  0  0  0  0  0  0  0  0  0  0  0
    6.1218   -1.4924   15.5656 C   0  0  0  0  0  0  0  0  0  0  0  0
    7.2748   -1.8579   16.1630 C   0  0  0  0  0  0  0  0  0  0  0  0
    7.6044   -1.6955   17.6235 C   0  0  0  0  0  0  0  0  0  0  0  0
    8.3797   -2.5054   15.3404 C   0  0  0  0  0  0  0  0  0  0  0  0
    8.9827   -1.6079   14.2295 C   0  0  0  0  0  0  0  0  0  0  0  0
    9.9946   -2.4327   13.4273 C   0  0  0  0  0  0  0  0  0  0  0  0
    9.6033   -0.3186   14.8266 C   0  0  0  0  0  0  0  0  0  0  0  0
   10.1136    0.7233   13.8152 C   0  0  0  0  0  0  0  0  0  0  0  0
   11.2771    0.2486   13.1444 O   0  0  0  0  0  0  0  0  0  0  0  0
   12.4902    0.5840   13.8007 C   0  0  0  0  0  0  0  0  0  0  0  0
    9.0103    1.1331   12.8177 C   0  0  0  0  0  0  0  0  0  0  0  0
    9.0858    0.9301   11.6048 O   0  0  0  0  0  0  0  0  0  0  0  0
    7.7976    1.8216   13.3964 C   0  0  0  0  0  0  0  0  0  0  0  0
   -5.2749    1.5756   14.4608 C   0  0  0  0  0  0  0  0  0  0  0  0
   -8.9658    3.4914   18.1941 H   0  0  0  0  0  0  0  0  0  0  0  0
  -10.5695    4.2239   18.0010 H   0  0  0  0  0  0  0  0  0  0  0  0
  -10.1562    2.7780   17.0584 H   0  0  0  0  0  0  0  0  0  0  0  0
   -8.2279    4.4551   14.6944 H   0  0  0  0  0  0  0  0  0  0  0  0
   -8.4334    2.9113   15.4918 H   0  0  0  0  0  0  0  0  0  0  0  0
   -6.6848    5.2723   16.4062 H   0  0  0  0  0  0  0  0  0  0  0  0
   -6.8477    3.8220   17.3711 H   0  0  0  0  0  0  0  0  0  0  0  0
   -6.5312    1.8037   16.2273 H   0  0  0  0  0  0  0  0  0  0  0  0
   -4.7681    2.5983   17.7450 H   0  0  0  0  0  0  0  0  0  0  0  0
   -3.6586    2.8280   16.4645 H   0  0  0  0  0  0  0  0  0  0  0  0
   -4.0649    0.6502   18.2551 H   0  0  0  0  0  0  0  0  0  0  0  0
   -3.9653   -0.5426   15.5287 H   0  0  0  0  0  0  0  0  0  0  0  0
   -3.8795   -1.3634   17.0700 H   0  0  0  0  0  0  0  0  0  0  0  0
   -6.3605    0.0434   17.0634 H   0  0  0  0  0  0  0  0  0  0  0  0
   -6.0554   -1.6387   16.9945 H   0  0  0  0  0  0  0  0  0  0  0  0
   -7.4691   -0.8439   15.1730 H   0  0  0  0  0  0  0  0  0  0  0  0
   -4.9830   -2.2840   14.2014 H   0  0  0  0  0  0  0  0  0  0  0  0
   -6.2570   -2.9859   15.1998 H   0  0  0  0  0  0  0  0  0  0  0  0
   -6.6407   -2.4355   13.5822 H   0  0  0  0  0  0  0  0  0  0  0  0
   -7.8608    0.3225   13.0946 H   0  0  0  0  0  0  0  0  0  0  0  0
   -4.7515   -1.8030   10.1555 H   0  0  0  0  0  0  0  0  0  0  0  0
   -4.6978   -2.4990   11.7807 H   0  0  0  0  0  0  0  0  0  0  0  0
   -2.5404   -3.5276   11.3526 H   0  0  0  0  0  0  0  0  0  0  0  0
   -3.6527   -4.0028   10.0927 H   0  0  0  0  0  0  0  0  0  0  0  0
   -1.1937   -3.1714    9.5153 H   0  0  0  0  0  0  0  0  0  0  0  0
   -2.5298   -2.8292    8.4395 H   0  0  0  0  0  0  0  0  0  0  0  0
   -2.5464   -0.5951    8.8570 H   0  0  0  0  0  0  0  0  0  0  0  0
   -0.8474   -0.9019    9.1840 H   0  0  0  0  0  0  0  0  0  0  0  0
   -1.9744    0.5526   10.8611 H   0  0  0  0  0  0  0  0  0  0  0  0
    0.3448   -1.1822   14.0973 H   0  0  0  0  0  0  0  0  0  0  0  0
   -1.6430    1.8764   13.3798 H   0  0  0  0  0  0  0  0  0  0  0  0
   -2.4964    2.0340   14.8771 H   0  0  0  0  0  0  0  0  0  0  0  0
   -0.7888    2.3744   14.8478 H   0  0  0  0  0  0  0  0  0  0  0  0
   -2.6031   -2.2933   15.5286 H   0  0  0  0  0  0  0  0  0  0  0  0
   -2.7409   -2.5794   13.8008 H   0  0  0  0  0  0  0  0  0  0  0  0
   -1.1462   -2.4048   14.5499 H   0  0  0  0  0  0  0  0  0  0  0  0
   -0.1881    0.4085   16.6732 H   0  0  0  0  0  0  0  0  0  0  0  0
   -1.2302   -0.9777   16.6357 H   0  0  0  0  0  0  0  0  0  0  0  0
   -1.9296    0.5457   18.2786 H   0  0  0  0  0  0  0  0  0  0  0  0
   -1.8987    1.9190   17.2388 H   0  0  0  0  0  0  0  0  0  0  0  0
    1.4199    0.8910   15.2804 H   0  0  0  0  0  0  0  0  0  0  0  0
    1.1323    1.7433   13.7678 H   0  0  0  0  0  0  0  0  0  0  0  0
    2.4945    0.1560   12.4798 H   0  0  0  0  0  0  0  0  0  0  0  0
    4.4062   -0.6711   13.4977 H   0  0  0  0  0  0  0  0  0  0  0  0
    3.1121    0.0233   16.2384 H   0  0  0  0  0  0  0  0  0  0  0  0
    4.9745   -0.8301   17.2787 H   0  0  0  0  0  0  0  0  0  0  0  0
    6.0301   -1.6885   14.4990 H   0  0  0  0  0  0  0  0  0  0  0  0
    7.7322   -2.6784   18.0890 H   0  0  0  0  0  0  0  0  0  0  0  0
    8.5398   -1.1371   17.7376 H   0  0  0  0  0  0  0  0  0  0  0  0
    6.8434   -1.1571   18.1914 H   0  0  0  0  0  0  0  0  0  0  0  0
    9.1865   -2.8423   16.0051 H   0  0  0  0  0  0  0  0  0  0  0  0
    7.9715   -3.4212   14.8908 H   0  0  0  0  0  0  0  0  0  0  0  0
    8.1752   -1.3288   13.5422 H   0  0  0  0  0  0  0  0  0  0  0  0
   10.2860   -1.9200   12.5065 H   0  0  0  0  0  0  0  0  0  0  0  0
   10.8968   -2.6359   14.0135 H   0  0  0  0  0  0  0  0  0  0  0  0
    9.5638   -3.3942   13.1269 H   0  0  0  0  0  0  0  0  0  0  0  0
    8.8576    0.1778   15.4582 H   0  0  0  0  0  0  0  0  0  0  0  0
   10.4252   -0.6094   15.4926 H   0  0  0  0  0  0  0  0  0  0  0  0
   10.3719    1.6456   14.3533 H   0  0  0  0  0  0  0  0  0  0  0  0
   13.3183    0.1518   13.2325 H   0  0  0  0  0  0  0  0  0  0  0  0
   12.6205    1.6701   13.8300 H   0  0  0  0  0  0  0  0  0  0  0  0
   12.5140    0.1747   14.8144 H   0  0  0  0  0  0  0  0  0  0  0  0
    7.2087    2.2647   12.5882 H   0  0  0  0  0  0  0  0  0  0  0  0
    7.1773    1.0996   13.9308 H   0  0  0  0  0  0  0  0  0  0  0  0
    8.1127    2.6221   14.0703 H   0  0  0  0  0  0  0  0  0  0  0  0
   -4.2360    1.2727   14.4654 H   0  0  0  0  0  0  0  0  0  0  0  0
   -5.3630    2.3572   13.6929 H   0  0  0  0  0  0  0  0  0  0  0  0
    3.4592   -1.4546    1.6280 B   0  0  0  0  0  0  0  0  0  0  0  0
    3.4564    1.1299    0.9400 N   0  0  0  0  0  0  0  0  0  0  0  0
    2.5399    2.3625   -1.2610 B   0  0  0  0  0  0  0  0  0  0  0  0
    2.2931   -0.6416   -2.7306 N   0  0  0  0  0  0  0  0  0  0  0  0
    0.6905   -3.5611    2.7027 B   0  0  0  0  0  0  0  0  0  0  0  0
   -2.9397   -2.6548    1.7095 N   0  0  0  0  0  0  0  0  0  0  0  0
   -1.0382    4.0851    1.8312 B   0  0  0  0  0  0  0  0  0  0  0  0
   -0.6193    0.0177   -3.9419 N   0  0  0  0  0  0  0  0  0  0  0  0
   -0.4737    1.4453   -4.0917 B   0  0  0  0  0  0  0  0  0  0  0  0
    1.2096   -3.7868   -1.7394 N   0  0  0  0  0  0  0  0  0  0  0  0
   -3.8445    2.2094   -0.4937 B   0  0  0  0  0  0  0  0  0  0  0  0
   -2.7729    2.7636   -1.2118 N   0  0  0  0  0  0  0  0  0  0  0  0
    1.4057    0.8181   -4.8893 B   0  0  0  0  0  0  0  0  0  0  0  0
   -0.2358    3.3642    2.8335 N   0  0  0  0  0  0  0  0  0  0  0  0
    0.8983   -2.8798   -2.8138 B   0  0  0  0  0  0  0  0  0  0  0  0
   -0.4918    3.7666   -1.0101 N   0  0  0  0  0  0  0  0  0  0  0  0
   -0.8060    2.1823    3.2819 B   0  0  0  0  0  0  0  0  0  0  0  0
    1.6561   -1.2744    3.5036 N   0  0  0  0  0  0  0  0  0  0  0  0
   -0.2485    3.4699   -2.3799 B   0  0  0  0  0  0  0  0  0  0  0  0
    1.3087    0.0689    3.8170 N   0  0  0  0  0  0  0  0  0  0  0  0
   -1.5974   -0.5599   -3.0847 B   0  0  0  0  0  0  0  0  0  0  0  0
   -3.8325    1.7768    0.8316 N   0  0  0  0  0  0  0  0  0  0  0  0
    0.3376    4.4960    1.1839 B   0  0  0  0  0  0  0  0  0  0  0  0
    0.0433   -0.0140    4.4567 N   0  0  0  0  0  0  0  0  0  0  0  0
   -2.7088    2.2268    1.6012 B   0  0  0  0  0  0  0  0  0  0  0  0
    3.7727   -0.1326   -0.7655 N   0  0  0  0  0  0  0  0  0  0  0  0
   -2.2534   -3.6394    1.0085 B   0  0  0  0  0  0  0  0  0  0  0  0
    1.0558    3.7334    2.2357 N   0  0  0  0  0  0  0  0  0  0  0  0
   -1.8256   -0.7775    3.2198 B   0  0  0  0  0  0  0  0  0  0  0  0
   -2.4368   -3.6019   -0.4508 N   0  0  0  0  0  0  0  0  0  0  0  0
    3.0187   -1.0737   -1.5028 B   0  0  0  0  0  0  0  0  0  0  0  0
   -3.1580   -1.2526   -0.3843 N   0  0  0  0  0  0  0  0  0  0  0  0
    2.0347    2.9223    1.5617 B   0  0  0  0  0  0  0  0  0  0  0  0
   -0.5074   -2.9001   -2.4328 N   0  0  0  0  0  0  0  0  0  0  0  0
   -1.6735   -2.1129   -2.4916 B   0  0  0  0  0  0  0  0  0  0  0  0
    0.5901    3.9646   -0.1102 N   0  0  0  0  0  0  0  0  0  0  0  0
    1.0903    2.9596   -3.1825 B   0  0  0  0  0  0  0  0  0  0  0  0
    0.0774   -4.3592    1.7213 N   0  0  0  0  0  0  0  0  0  0  0  0
   -1.7840    3.4524   -0.4082 B   0  0  0  0  0  0  0  0  0  0  0  0
   -2.0135    3.4185    1.0316 N   0  0  0  0  0  0  0  0  0  0  0  0
    1.4659   -4.2121    1.4991 B   0  0  0  0  0  0  0  0  0  0  0  0
   -0.7980    1.0642    4.1946 N   0  0  0  0  0  0  0  0  0  0  0  0
   -2.6662   -2.4021   -1.1753 B   0  0  0  0  0  0  0  0  0  0  0  0
   -1.0744   -4.4843    0.9912 N   0  0  0  0  0  0  0  0  0  0  0  0
   -2.5037    0.4914   -2.1091 B   0  0  0  0  0  0  0  0  0  0  0  0
    2.3527   -3.8873    0.4531 N   0  0  0  0  0  0  0  0  0  0  0  0
    3.9123   -0.2024    0.7259 B   0  0  0  0  0  0  0  0  0  0  0  0
    1.9285    1.9570   -2.4651 N   0  0  0  0  0  0  0  0  0  0  0  0
    1.0012    2.2544   -4.6225 B   0  0  0  0  0  0  0  0  0  0  0  0
   -4.1860    0.8290   -0.3475 N   0  0  0  0  0  0  0  0  0  0  0  0
   -1.3389    2.4537   -3.1149 B   0  0  0  0  0  0  0  0  0  0  0  0
   -2.3596    1.9326   -2.3058 N   0  0  0  0  0  0  0  0  0  0  0  0
    3.0731   -2.6455    0.6011 B   0  0  0  0  0  0  0  0  0  0  0  0
    2.3352   -3.6737   -0.9709 N   0  0  0  0  0  0  0  0  0  0  0  0
    2.2179    0.5458    2.8084 B   0  0  0  0  0  0  0  0  0  0  0  0
   -2.0264    0.6119    3.6015 N   0  0  0  0  0  0  0  0  0  0  0  0
   -1.1017   -4.1838   -0.4410 B   0  0  0  0  0  0  0  0  0  0  0  0
   -3.2181    0.0417   -0.9586 N   0  0  0  0  0  0  0  0  0  0  0  0
    3.4478    1.2586   -0.5141 B   0  0  0  0  0  0  0  0  0  0  0  0
    2.5821    1.6330    1.9365 N   0  0  0  0  0  0  0  0  0  0  0  0
    1.4721   -1.5550   -3.5156 B   0  0  0  0  0  0  0  0  0  0  0  0
   -2.1026    1.7542    2.7608 N   0  0  0  0  0  0  0  0  0  0  0  0
    2.0408    0.7119   -3.2115 B   0  0  0  0  0  0  0  0  0  0  0  0
   -2.7209   -1.3417    2.3206 N   0  0  0  0  0  0  0  0  0  0  0  0
    0.6586   -0.5389   -4.4869 B   0  0  0  0  0  0  0  0  0  0  0  0
   -0.1687   -3.7594   -1.3565 N   0  0  0  0  0  0  0  0  0  0  0  0
    0.4856   -2.1056    3.4338 B   0  0  0  0  0  0  0  0  0  0  0  0
   -0.5873   -1.2050    3.8245 N   0  0  0  0  0  0  0  0  0  0  0  0
   -3.2244   -1.4514    1.0003 B   0  0  0  0  0  0  0  0  0  0  0  0
    2.6713   -0.8555    2.6211 N   0  0  0  0  0  0  0  0  0  0  0  0
    1.8786    3.3393   -0.1064 B   0  0  0  0  0  0  0  0  0  0  0  0
    2.8769   -2.3318   -0.7936 N   0  0  0  0  0  0  0  0  0  0  0  0
  1  2  1  0  0  0  0
  2  3  1  0  0  0  0
  3  4  1  0  0  0  0
  4  5  1  0  0  0  0
  5  6  1  0  0  0  0
  6  7  1  0  0  0  0
  7  8  1  0  0  0  0
  8  9  1  0  0  0  0
  9 10  1  0  0  0  0
 10 11  1  0  0  0  0
 11 12  1  0  0  0  0
 11 13  1  0  0  0  0
 13 14  1  0  0  0  0
 13 15  1  0  0  0  0
 15 16  2  0  0  0  0
 15 17  1  0  0  0  0
 17 18  2  0  0  0  0
 17 19  4  0  0  0  0
 19 20  1  0  0  0  0
 20 21  1  0  0  0  0
 21 22  1  0  0  0  0
 22 23  1  0  0  0  0
 19 24  1  0  0  0  0
 23 24  1  0  0  0  0
 24 25  1  0  0  0  0
 25 26  2  0  0  0  0
 25 27  1  0  0  0  0
 27 28  1  0  0  0  0
 28 29  1  0  0  0  0
 29 30  1  0  0  0  0
 29 31  1  0  0  0  0
 31 32  1  0  0  0  0
 29 33  1  0  0  0  0
  8 34  1  0  0  0  0
 33 34  1  0  0  0  0
 28 35  1  0  0  0  0
 35 36  1  0  0  0  0
 36 37  2  0  0  0  0
 37 38  1  0  0  0  0
 38 39  2  0  0  0  0
 39 40  1  0  0  0  0
 40 41  2  0  0  0  0
 41 42  1  0  0  0  0
 41 43  1  0  0  0  0
 43 44  1  0  0  0  0
 44 45  1  0  0  0  0
 44 46  1  0  0  0  0
 46 47  1  0  0  0  0
 47 48  1  0  0  0  0
 48 49  1  0  0  0  0
 47 50  1  0  0  0  0
 50 51  2  0  0  0  0
 50 52  1  0  0  0  0
  6 53  1  0  0  0  0
 13 53  1  0  0  0  0
  1 54  1  0  0  0  0
  1 55  1  0  0  0  0
  1 56  1  0  0  0  0
  3 57  1  0  0  0  0
  3 58  1  0  0  0  0
  4 59  1  0  0  0  0
  4 60  1  0  0  0  0
  6 61  1  0  0  0  0
  7 62  1  0  0  0  0
  7 63  1  0  0  0  0
  8 64  1  0  0  0  0
  9 65  1  0  0  0  0
  9 66  1  0  0  0  0
 10 67  1  0  0  0  0
 10 68  1  0  0  0  0
 11 69  1  0  0  0  0
 12 70  1  0  0  0  0
 12 71  1  0  0  0  0
 12 72  1  0  0  0  0
 14 73  1  0  0  0  0
 20 74  1  0  0  0  0
 20 75  1  0  0  0  0
 21 76  1  0  0  0  0
 21 77  1  0  0  0  0
 22 78  1  0  0  0  0
 22 79  1  0  0  0  0
 23 80  1  0  0  0  0
 23 81  1  0  0  0  0
 24 82  1  0  0  0  0
 28 83  1  0  0  0  0
 30 84  1  0  0  0  0
 30 85  1  0  0  0  0
 30 86  1  0  0  0  0
 32 87  1  0  0  0  0
 32 88  1  0  0  0  0
 32 89  1  0  0  0  0
 33 90  1  0  0  0  0
 33 91  1  0  0  0  0
 34 92  1  0  0  0  0
 34 93  1  0  0  0  0
 35 94  1  0  0  0  0
 35 95  1  0  0  0  0
 36 96  1  0  0  0  0
 37 97  1  0  0  0  0
 38 98  1  0  0  0  0
 39 99  1  0  0  0  0
 40100  1  0  0  0  0
 42101  1  0  0  0  0
 42102  1  0  0  0  0
 42103  1  0  0  0  0
 43104  1  0  0  0  0
 43105  1  0  0  0  0
 44106  1  0  0  0  0
 45107  1  0  0  0  0
 45108  1  0  0  0  0
 45109  1  0  0  0  0
 46110  1  0  0  0  0
 46111  1  0  0  0  0
 47112  1  0  0  0  0
 49113  1  0  0  0  0
 49114  1  0  0  0  0
 49115  1  0  0  0  0
 52116  1  0  0  0  0
 52117  1  0  0  0  0
 52118  1  0  0  0  0
 53119  1  0  0  0  0
 53120  1  0  0  0  0
128129  1  0  0  0  0
131132  1  0  0  0  0
127134  1  0  0  0  0
130135  1  0  0  0  0
134137  1  0  0  0  0
136139  1  0  0  0  0
138140  1  0  0  0  0
128141  1  0  0  0  0
131142  1  0  0  0  0
127143  1  0  0  0  0
140144  1  0  0  0  0
142145  1  0  0  0  0
126147  1  0  0  0  0
134148  1  0  0  0  0
143148  1  0  0  0  0
147150  1  0  0  0  0
124151  1  0  0  0  0
146151  1  0  0  0  0
148153  1  0  0  0  0
135154  1  0  0  0  0
141155  1  0  0  0  0
154155  1  0  0  0  0
136156  1  0  0  0  0
143156  1  0  0  0  0
139157  1  0  0  0  0
125158  1  0  0  0  0
132159  1  0  0  0  0
136159  1  0  0  0  0
127160  1  0  0  0  0
145160  1  0  0  0  0
159160  1  0  0  0  0
125161  1  0  0  0  0
158161  1  0  0  0  0
137162  1  0  0  0  0
144162  1  0  0  0  0
150163  1  0  0  0  0
152163  1  0  0  0  0
155163  1  0  0  0  0
147164  1  0  0  0  0
158164  1  0  0  0  0
141165  1  0  0  0  0
161166  1  0  0  0  0
121167  1  0  0  0  0
122167  1  0  0  0  0
146167  1  0  0  0  0
123168  1  0  0  0  0
157168  1  0  0  0  0
129169  1  0  0  0  0
133169  1  0  0  0  0
157169  1  0  0  0  0
131170  1  0  0  0  0
142170  1  0  0  0  0
129171  1  0  0  0  0
139171  1  0  0  0  0
132172  1  0  0  0  0
165172  1  0  0  0  0
171172  1  0  0  0  0
121173  1  0  0  0  0
166173  1  0  0  0  0
130174  1  0  0  0  0
166174  1  0  0  0  0
140175  1  0  0  0  0
149176  1  0  0  0  0
162176  1  0  0  0  0
150177  1  0  0  0  0
164177  1  0  0  0  0
152178  1  0  0  0  0
165178  1  0  0  0  0
170178  1  0  0  0  0
122179  1  0  0  0  0
123179  1  0  0  0  0
146179  1  0  0  0  0
122180  1  0  0  0  0
153180  1  0  0  0  0
175180  1  0  0  0  0
124181  1  0  0  0  0
135181  1  0  0  0  0
137182  1  0  0  0  0
145182  1  0  0  0  0
176182  1  0  0  0  0
124183  1  0  0  0  0
133183  1  0  0  0  0
168183  1  0  0  0  0
126184  1  0  0  0  0
149184  1  0  0  0  0
128185  1  0  0  0  0
133185  1  0  0  0  0
181185  1  0  0  0  0
130186  1  0  0  0  0
154186  1  0  0  0  0
177186  1  0  0  0  0
125187  1  0  0  0  0
138187  1  0  0  0  0
144188  1  0  0  0  0
149188  1  0  0  0  0
187188  1  0  0  0  0
126189  1  0  0  0  0
152189  1  0  0  0  0
184189  1  0  0  0  0
121190  1  0  0  0  0
138190  1  0  0  0  0
175190  1  0  0  0  0
123191  1  0  0  0  0
153191  1  0  0  0  0
156191  1  0  0  0  0
151192  1  0  0  0  0
173192  1  0  0  0  0
174192  1  0  0  0  0
M  END
