 xtb: 6.7.1pre (5071a88)
          08312618403D

192178  0     0  0            999 V2000
   -9.7605    3.7091    3.1052 C   0  0  0  0  0  0  0  0  0  0  0  0
   -9.2925    4.5595    2.0674 O   0  0  0  0  0  0  0  0  0  0  0  0
   -8.2336    3.9723    1.3079 C   0  0  0  0  0  0  0  0  0  0  0  0
   -6.8719    4.1945    1.9709 C   0  0  0  0  0  0  0  0  0  0  0  0
   -5.8153    3.6223    1.1999 O   0  0  0  0  0  0  0  0  0  0  0  0
   -5.6099    2.2110    1.4409 C   0  0  0  0  0  0  0  0  0  0  0  0
   -4.4296    2.1281    2.4393 C   0  0  0  0  0  0  0  0  0  0  0  0
   -3.7747    0.7646    2.8273 C   0  0  0  0  0  0  0  0  0  0  0  0
   -4.3111   -0.5044    2.1719 C   0  0  0  0  0  0  0  0  0  0  0  0
   -5.8192   -0.6992    2.1038 C   0  0  0  0  0  0  0  0  0  0  0  0
   -6.3791   -0.8096    0.6511 C   0  0  0  0  0  0  0  0  0  0  0  0
   -6.0380   -2.2029    0.0949 C   0  0  0  0  0  0  0  0  0  0  0  0
   -6.0977    0.3676   -0.3792 C   0  0  0  0  0  0  0  0  0  0  0  0
   -7.4307    0.9196   -0.6292 O   0  0  0  0  0  0  0  0  0  0  0  0
   -5.6336   -0.1112   -1.8103 C   0  0  0  0  0  0  0  0  0  0  0  0
   -6.4326   -0.6543   -2.5791 O   0  0  0  0  0  0  0  0  0  0  0  0
   -4.1881    0.1731   -2.3143 C   0  0  0  0  0  0  0  0  0  0  0  0
   -3.7628    1.3208   -2.2360 O   0  0  0  0  0  0  0  0  0  0  0  0
   -3.4418   -0.8595   -2.9194 N   0  0  0  0  0  0  0  0  0  0  0  0
   -4.0825   -2.0840   -3.3926 C   0  0  0  0  0  0  0  0  0  0  0  0
   -3.1046   -3.1432   -3.8744 C   0  0  0  0  0  0  0  0  0  0  0  0
   -2.1358   -2.6148   -4.9297 C   0  0  0  0  0  0  0  0  0  0  0  0
   -1.8621   -1.1120   -4.8271 C   0  0  0  0  0  0  0  0  0  0  0  0
   -2.0710   -0.5365   -3.4219 C   0  0  0  0  0  0  0  0  0  0  0  0
   -0.9281   -1.0003   -2.4768 C   0  0  0  0  0  0  0  0  0  0  0  0
   -0.6304   -2.1694   -2.2588 O   0  0  0  0  0  0  0  0  0  0  0  0
   -0.3353    0.0554   -1.8431 O   0  0  0  0  0  0  0  0  0  0  0  0
    0.0480   -0.1415   -0.4296 C   0  0  0  0  0  0  0  0  0  0  0  0
   -1.2419    0.2253    0.4207 C   0  0  0  0  0  0  0  0  0  0  0  0
   -1.5579    1.7008    0.0849 C   0  0  0  0  0  0  0  0  0  0  0  0
   -2.2994   -0.6305   -0.0786 O   0  0  0  0  0  0  0  0  0  0  0  0
   -2.1719   -2.0381    0.1896 C   0  0  0  0  0  0  0  0  0  0  0  0
   -1.1805    0.0761    1.9740 C   0  0  0  0  0  0  0  0  0  0  0  0
   -2.1939    0.8620    2.8870 C   0  0  0  0  0  0  0  0  0  0  0  0
    1.2769    0.7494   -0.1623 C   0  0  0  0  0  0  0  0  0  0  0  0
    2.5187    0.1751   -0.7997 C   0  0  0  0  0  0  0  0  0  0  0  0
    3.6253   -0.3049   -0.2091 C   0  0  0  0  0  0  0  0  0  0  0  0
    3.8802   -0.3806    1.2130 C   0  0  0  0  0  0  0  0  0  0  0  0
    4.9696   -0.8803    1.8222 C   0  0  0  0  0  0  0  0  0  0  0  0
    6.1218   -1.4924    1.1952 C   0  0  0  0  0  0  0  0  0  0  0  0
    7.2748   -1.8579    1.7927 C   0  0  0  0  0  0  0  0  0  0  0  0
    7.6044   -1.6955    3.2531 C   0  0  0  0  0  0  0  0  0  0  0  0
    8.3797   -2.5054    0.9700 C   0  0  0  0  0  0  0  0  0  0  0  0
    8.9827   -1.6079   -0.1408 C   0  0  0  0  0  0  0  0  0  0  0  0
    9.9946   -2.4327   -0.9431 C   0  0  0  0  0  0  0  0  0  0  0  0
    9.6033   -0.3186    0.4563 C   0  0  0  0  0  0  0  0  0  0  0  0
   10.1136    0.7233   -0.5551 C   0  0  0  0  0  0  0  0  0  0  0  0
   11.2771    0.2486   -1.2259 O   0  0  0  0  0  0  0  0  0  0  0  0
   12.4902    0.5840   -0.5697 C   0  0  0  0  0  0  0  0  0  0  0  0
    9.0103    1.1331   -1.5526 C   0  0  0  0  0  0  0  0  0  0  0  0
    9.0858    0.9301   -2.7655 O   0  0  0  0  0  0  0  0  0  0  0  0
    7.7976    1.8216   -0.9740 C   0  0  0  0  0  0  0  0  0  0  0  0
   -5.2749    1.5756    0.0904 C   0  0  0  0  0  0  0  0  0  0  0  0
   -8.9658    3.4914    3.8238 H   0  0  0  0  0  0  0  0  0  0  0  0
  -10.5695    4.2239    3.6306 H   0  0  0  0  0  0  0  0  0  0  0  0
  -10.1562    2.7780    2.6880 H   0  0  0  0  0  0  0  0  0  0  0  0
   -8.2279    4.4551    0.3240 H   0  0  0  0  0  0  0  0  0  0  0  0
   -8.4334    2.9113    1.1215 H   0  0  0  0  0  0  0  0  0  0  0  0
   -6.6848    5.2723    2.0359 H   0  0  0  0  0  0  0  0  0  0  0  0
   -6.8477    3.8220    3.0008 H   0  0  0  0  0  0  0  0  0  0  0  0
   -6.5312    1.8037    1.8570 H   0  0  0  0  0  0  0  0  0  0  0  0
   -4.7681    2.5983    3.3747 H   0  0  0  0  0  0  0  0  0  0  0  0
   -3.6586    2.8280    2.0942 H   0  0  0  0  0  0  0  0  0  0  0  0
   -4.0649    0.6502    3.8848 H   0  0  0  0  0  0  0  0  0  0  0  0
   -3.9653   -0.5426    1.1584 H   0  0  0  0  0  0  0  0  0  0  0  0
   -3.8795   -1.3634    2.6997 H   0  0  0  0  0  0  0  0  0  0  0  0
   -6.3605    0.0434    2.6930 H   0  0  0  0  0  0  0  0  0  0  0  0
   -6.0554   -1.6387    2.6241 H   0  0  0  0  0  0  0  0  0  0  0  0
   -7.4691   -0.8439    0.8026 H   0  0  0  0  0  0  0  0  0  0  0  0
   -4.9830   -2.2840   -0.1689 H   0  0  0  0  0  0  0  0  0  0  0  0
   -6.2570   -2.9859    0.8294 H   0  0  0  0  0  0  0  0  0  0  0  0
   -6.6407   -2.4355   -0.7881 H   0  0  0  0  0  0  0  0  0  0  0  0
   -7.8608    0.3225   -1.2757 H   0  0  0  0  0  0  0  0  0  0  0  0
   -4.7515   -1.8030   -4.2148 H   0  0  0  0  0  0  0  0  0  0  0  0
   -4.6978   -2.4990   -2.5896 H   0  0  0  0  0  0  0  0  0  0  0  0
   -2.5404   -3.5276   -3.0178 H   0  0  0  0  0  0  0  0  0  0  0  0
   -3.6527   -4.0028   -4.2777 H   0  0  0  0  0  0  0  0  0  0  0  0
   -1.1937   -3.1714   -4.8551 H   0  0  0  0  0  0  0  0  0  0  0  0
   -2.5298   -2.8292   -5.9309 H   0  0  0  0  0  0  0  0  0  0  0  0
   -2.5464   -0.5951   -5.5134 H   0  0  0  0  0  0  0  0  0  0  0  0
   -0.8474   -0.9019   -5.1863 H   0  0  0  0  0  0  0  0  0  0  0  0
   -1.9744    0.5526   -3.5093 H   0  0  0  0  0  0  0  0  0  0  0  0
    0.3448   -1.1822   -0.2730 H   0  0  0  0  0  0  0  0  0  0  0  0
   -1.6430    1.8764   -0.9905 H   0  0  0  0  0  0  0  0  0  0  0  0
   -2.4964    2.0340    0.5067 H   0  0  0  0  0  0  0  0  0  0  0  0
   -0.7888    2.3744    0.4775 H   0  0  0  0  0  0  0  0  0  0  0  0
   -2.6031   -2.2933    1.1582 H   0  0  0  0  0  0  0  0  0  0  0  0
   -2.7409   -2.5794   -0.5696 H   0  0  0  0  0  0  0  0  0  0  0  0
   -1.1462   -2.4048    0.1795 H   0  0  0  0  0  0  0  0  0  0  0  0
   -0.1881    0.4085    2.3029 H   0  0  0  0  0  0  0  0  0  0  0  0
   -1.2302   -0.9777    2.2654 H   0  0  0  0  0  0  0  0  0  0  0  0
   -1.9296    0.5457    3.9082 H   0  0  0  0  0  0  0  0  0  0  0  0
   -1.8987    1.9190    2.8685 H   0  0  0  0  0  0  0  0  0  0  0  0
    1.4199    0.8910    0.9100 H   0  0  0  0  0  0  0  0  0  0  0  0
    1.1323    1.7433   -0.6026 H   0  0  0  0  0  0  0  0  0  0  0  0
    2.4945    0.1560   -1.8905 H   0  0  0  0  0  0  0  0  0  0  0  0
    4.4062   -0.6711   -0.8726 H   0  0  0  0  0  0  0  0  0  0  0  0
    3.1121    0.0233    1.8681 H   0  0  0  0  0  0  0  0  0  0  0  0
    4.9745   -0.8301    2.9083 H   0  0  0  0  0  0  0  0  0  0  0  0
    6.0301   -1.6885    0.1287 H   0  0  0  0  0  0  0  0  0  0  0  0
    7.7322   -2.6784    3.7187 H   0  0  0  0  0  0  0  0  0  0  0  0
    8.5398   -1.1371    3.3673 H   0  0  0  0  0  0  0  0  0  0  0  0
    6.8434   -1.1571    3.8210 H   0  0  0  0  0  0  0  0  0  0  0  0
    9.1865   -2.8423    1.6347 H   0  0  0  0  0  0  0  0  0  0  0  0
    7.9715   -3.4212    0.5204 H   0  0  0  0  0  0  0  0  0  0  0  0
    8.1752   -1.3288   -0.8282 H   0  0  0  0  0  0  0  0  0  0  0  0
   10.2860   -1.9200   -1.8639 H   0  0  0  0  0  0  0  0  0  0  0  0
   10.8968   -2.6359   -0.3568 H   0  0  0  0  0  0  0  0  0  0  0  0
    9.5638   -3.3942   -1.2434 H   0  0  0  0  0  0  0  0  0  0  0  0
    8.8576    0.1778    1.0879 H   0  0  0  0  0  0  0  0  0  0  0  0
   10.4252   -0.6094    1.1222 H   0  0  0  0  0  0  0  0  0  0  0  0
   10.3719    1.6456   -0.0171 H   0  0  0  0  0  0  0  0  0  0  0  0
   13.3183    0.1518   -1.1378 H   0  0  0  0  0  0  0  0  0  0  0  0
   12.6205    1.6701   -0.5404 H   0  0  0  0  0  0  0  0  0  0  0  0
   12.5140    0.1747    0.4441 H   0  0  0  0  0  0  0  0  0  0  0  0
    7.2087    2.2647   -1.7821 H   0  0  0  0  0  0  0  0  0  0  0  0
    7.1773    1.0996   -0.4395 H   0  0  0  0  0  0  0  0  0  0  0  0
    8.1127    2.6221   -0.3001 H   0  0  0  0  0  0  0  0  0  0  0  0
   -4.2360    1.2727    0.0951 H   0  0  0  0  0  0  0  0  0  0  0  0
   -5.3630    2.3572   -0.6775 H   0  0  0  0  0  0  0  0  0  0  0  0
    2.1012    0.0000    3.3450 B   0  0  0  0  0  0  0  0  0  0  0  0
   -2.1012    0.0000    3.3450 B   0  0  0  0  0  0  0  0  0  0  0  0
    0.0000    2.1012    3.3450 B   0  0  0  0  0  0  0  0  0  0  0  0
    0.0000   -2.1012    3.3450 B   0  0  0  0  0  0  0  0  0  0  0  0
    3.3450    2.1012    0.0000 B   0  0  0  0  0  0  0  0  0  0  0  0
    3.3450   -2.1012    0.0000 B   0  0  0  0  0  0  0  0  0  0  0  0
    3.3450    0.0000    2.1012 B   0  0  0  0  0  0  0  0  0  0  0  0
    3.3450    0.0000   -2.1012 B   0  0  0  0  0  0  0  0  0  0  0  0
   -3.3450    2.1012    0.0000 B   0  0  0  0  0  0  0  0  0  0  0  0
   -3.3450   -2.1012    0.0000 B   0  0  0  0  0  0  0  0  0  0  0  0
   -3.3450    0.0000    2.1012 B   0  0  0  0  0  0  0  0  0  0  0  0
   -3.3450    0.0000   -2.1012 B   0  0  0  0  0  0  0  0  0  0  0  0
    2.1012    0.0000   -3.3450 B   0  0  0  0  0  0  0  0  0  0  0  0
   -2.1012    0.0000   -3.3450 B   0  0  0  0  0  0  0  0  0  0  0  0
    0.0000    2.1012   -3.3450 B   0  0  0  0  0  0  0  0  0  0  0  0
    0.0000   -2.1012   -3.3450 B   0  0  0  0  0  0  0  0  0  0  0  0
    0.0000    3.3450    2.1012 B   0  0  0  0  0  0  0  0  0  0  0  0
    0.0000    3.3450   -2.1012 B   0  0  0  0  0  0  0  0  0  0  0  0
    0.0000   -3.3450    2.1012 B   0  0  0  0  0  0  0  0  0  0  0  0
    0.0000   -3.3450   -2.1012 B   0  0  0  0  0  0  0  0  0  0  0  0
    2.1012    3.3450    0.0000 B   0  0  0  0  0  0  0  0  0  0  0  0
   -2.1012    3.3450    0.0000 B   0  0  0  0  0  0  0  0  0  0  0  0
    2.1012   -3.3450    0.0000 B   0  0  0  0  0  0  0  0  0  0  0  0
   -2.1012   -3.3450    0.0000 B   0  0  0  0  0  0  0  0  0  0  0  0
    1.4800    1.4800    3.5800 B   0  0  0  0  0  0  0  0  0  0  0  0
   -1.4800    1.4800    3.5800 B   0  0  0  0  0  0  0  0  0  0  0  0
    1.4800   -1.4800    3.5800 B   0  0  0  0  0  0  0  0  0  0  0  0
   -1.4800   -1.4800    3.5800 B   0  0  0  0  0  0  0  0  0  0  0  0
    3.5800    1.4800    1.4800 B   0  0  0  0  0  0  0  0  0  0  0  0
    3.5800   -1.4800    1.4800 B   0  0  0  0  0  0  0  0  0  0  0  0
    3.5800    1.4800   -1.4800 B   0  0  0  0  0  0  0  0  0  0  0  0
    3.5800   -1.4800   -1.4800 B   0  0  0  0  0  0  0  0  0  0  0  0
   -3.5800    1.4800    1.4800 B   0  0  0  0  0  0  0  0  0  0  0  0
   -3.5800   -1.4800    1.4800 B   0  0  0  0  0  0  0  0  0  0  0  0
   -3.5800    1.4800   -1.4800 B   0  0  0  0  0  0  0  0  0  0  0  0
   -3.5800   -1.4800   -1.4800 B   0  0  0  0  0  0  0  0  0  0  0  0
    2.1012    0.0000    3.9200 N   0  0  0  0  0  0  0  0  0  0  0  0
   -2.1012    0.0000    3.9200 N   0  0  0  0  0  0  0  0  0  0  0  0
    0.0000    2.1012    3.9200 N   0  0  0  0  0  0  0  0  0  0  0  0
    0.0000   -2.1012    3.9200 N   0  0  0  0  0  0  0  0  0  0  0  0
    3.9200    2.1012    0.0000 N   0  0  0  0  0  0  0  0  0  0  0  0
    3.9200   -2.1012    0.0000 N   0  0  0  0  0  0  0  0  0  0  0  0
    3.9200    0.0000    2.1012 N   0  0  0  0  0  0  0  0  0  0  0  0
    3.9200    0.0000   -2.1012 N   0  0  0  0  0  0  0  0  0  0  0  0
   -3.9200    2.1012    0.0000 N   0  0  0  0  0  0  0  0  0  0  0  0
   -3.9200   -2.1012    0.0000 N   0  0  0  0  0  0  0  0  0  0  0  0
   -3.9200    0.0000    2.1012 N   0  0  0  0  0  0  0  0  0  0  0  0
   -3.9200    0.0000   -2.1012 N   0  0  0  0  0  0  0  0  0  0  0  0
    2.1012    0.0000   -3.9200 N   0  0  0  0  0  0  0  0  0  0  0  0
   -2.1012    0.0000   -3.9200 N   0  0  0  0  0  0  0  0  0  0  0  0
    0.0000    2.1012   -3.9200 N   0  0  0  0  0  0  0  0  0  0  0  0
    0.0000   -2.1012   -3.9200 N   0  0  0  0  0  0  0  0  0  0  0  0
    0.0000    3.9200    2.1012 N   0  0  0  0  0  0  0  0  0  0  0  0
    0.0000    3.9200   -2.1012 N   0  0  0  0  0  0  0  0  0  0  0  0
    0.0000   -3.9200    2.1012 N   0  0  0  0  0  0  0  0  0  0  0  0
    0.0000   -3.9200   -2.1012 N   0  0  0  0  0  0  0  0  0  0  0  0
    2.1012    3.9200    0.0000 N   0  0  0  0  0  0  0  0  0  0  0  0
   -2.1012    3.9200    0.0000 N   0  0  0  0  0  0  0  0  0  0  0  0
    2.1012   -3.9200    0.0000 N   0  0  0  0  0  0  0  0  0  0  0  0
   -2.1012   -3.9200    0.0000 N   0  0  0  0  0  0  0  0  0  0  0  0
    1.4800    1.4800    4.2200 N   0  0  0  0  0  0  0  0  0  0  0  0
   -1.4800    1.4800    4.2200 N   0  0  0  0  0  0  0  0  0  0  0  0
    1.4800   -1.4800    4.2200 N   0  0  0  0  0  0  0  0  0  0  0  0
   -1.4800   -1.4800    4.2200 N   0  0  0  0  0  0  0  0  0  0  0  0
    4.2200    1.4800    1.4800 N   0  0  0  0  0  0  0  0  0  0  0  0
    4.2200   -1.4800    1.4800 N   0  0  0  0  0  0  0  0  0  0  0  0
    4.2200    1.4800   -1.4800 N   0  0  0  0  0  0  0  0  0  0  0  0
    4.2200   -1.4800   -1.4800 N   0  0  0  0  0  0  0  0  0  0  0  0
   -4.2200    1.4800    1.4800 N   0  0  0  0  0  0  0  0  0  0  0  0
   -4.2200   -1.4800    1.4800 N   0  0  0  0  0  0  0  0  0  0  0  0
   -4.2200    1.4800   -1.4800 N   0  0  0  0  0  0  0  0  0  0  0  0
   -4.2200   -1.4800   -1.4800 N   0  0  0  0  0  0  0  0  0  0  0  0
  1  2  1  0  0  0  0
  2  3  1  0  0  0  0
  3  4  1  0  0  0  0
  4  5  1  0  0  0  0
  5  6  1  0  0  0  0
  6  7  1  0  0  0  0
  7  8  1  0  0  0  0
  9 10  1  0  0  0  0
 10 11  1  0  0  0  0
 11 12  1  0  0  0  0
 11 13  1  0  0  0  0
 13 14  1  0  0  0  0
 13 15  1  0  0  0  0
 15 16  4  0  0  0  0
 19 20  1  0  0  0  0
 20 21  1  0  0  0  0
 21 22  1  0  0  0  0
 22 23  1  0  0  0  0
 19 24  1  0  0  0  0
 23 24  1  0  0  0  0
 24 25  1  0  0  0  0
 25 26  1  0  0  0  0
 25 27  1  0  0  0  0
 27 28  1  0  0  0  0
 28 29  1  0  0  0  0
 29 30  1  0  0  0  0
 29 31  1  0  0  0  0
 31 32  1  0  0  0  0
 29 33  1  0  0  0  0
  8 34  1  0  0  0  0
 33 34  1  0  0  0  0
 28 35  1  0  0  0  0
 35 36  1  0  0  0  0
 36 37  4  0  0  0  0
 37 38  1  0  0  0  0
 38 39  1  0  0  0  0
 39 40  1  0  0  0  0
 40 41  4  0  0  0  0
 41 42  1  0  0  0  0
 41 43  1  0  0  0  0
 43 44  1  0  0  0  0
 44 45  1  0  0  0  0
 44 46  1  0  0  0  0
 46 47  1  0  0  0  0
 47 48  1  0  0  0  0
 48 49  1  0  0  0  0
 47 50  1  0  0  0  0
 50 51  2  0  0  0  0
 50 52  1  0  0  0  0
  6 53  1  0  0  0  0
 13 53  1  0  0  0  0
  1 54  1  0  0  0  0
  1 55  1  0  0  0  0
  1 56  1  0  0  0  0
  3 57  1  0  0  0  0
  3 58  1  0  0  0  0
  4 59  1  0  0  0  0
  4 60  1  0  0  0  0
  6 61  1  0  0  0  0
  7 62  1  0  0  0  0
  7 63  1  0  0  0  0
  8 64  1  0  0  0  0
  9 66  1  0  0  0  0
 10 67  1  0  0  0  0
 10 68  1  0  0  0  0
 11 69  1  0  0  0  0
 12 70  1  0  0  0  0
 12 71  1  0  0  0  0
 12 72  1  0  0  0  0
 14 73  1  0  0  0  0
 20 74  1  0  0  0  0
 20 75  1  0  0  0  0
 21 76  1  0  0  0  0
 21 77  1  0  0  0  0
 22 78  1  0  0  0  0
 22 79  1  0  0  0  0
 23 80  1  0  0  0  0
 23 81  1  0  0  0  0
 28 83  1  0  0  0  0
 30 84  1  0  0  0  0
 30 85  1  0  0  0  0
 30 86  1  0  0  0  0
 32 87  1  0  0  0  0
 32 88  1  0  0  0  0
 32 89  1  0  0  0  0
 33 90  1  0  0  0  0
 33 91  1  0  0  0  0
 34 93  1  0  0  0  0
 35 94  1  0  0  0  0
 35 95  1  0  0  0  0
 36 96  1  0  0  0  0
 37 97  1  0  0  0  0
 39 99  1  0  0  0  0
 40100  1  0  0  0  0
 42101  1  0  0  0  0
 42102  1  0  0  0  0
 42103  1  0  0  0  0
 43104  1  0  0  0  0
 43105  1  0  0  0  0
 44106  1  0  0  0  0
 45107  1  0  0  0  0
 45108  1  0  0  0  0
 45109  1  0  0  0  0
 46110  1  0  0  0  0
 46111  1  0  0  0  0
 47112  1  0  0  0  0
 49113  1  0  0  0  0
 49114  1  0  0  0  0
 49115  1  0  0  0  0
 52116  1  0  0  0  0
 52117  1  0  0  0  0
 52118  1  0  0  0  0
 53119  1  0  0  0  0
 53120  1  0  0  0  0
 34122  1  0  0  0  0
 38127  1  0  0  0  0
 98127  1  0  0  0  0
 32130  1  0  0  0  0
  8131  1  0  0  0  0
 34131  1  0  0  0  0
 19132  1  0  0  0  0
 24134  1  0  0  0  0
 82134  1  0  0  0  0
132134  1  0  0  0  0
 26136  1  0  0  0  0
 26140  1  0  0  0  0
 32144  1  0  0  0  0
 34146  1  0  0  0  0
 38150  1  0  0  0  0
 18155  1  0  0  0  0
121157  3  0  0  0  0
 34158  1  0  0  0  0
 92158  1  0  0  0  0
122158  3  0  0  0  0
123159  3  0  0  0  0
124160  3  0  0  0  0
125161  3  0  0  0  0
126162  3  0  0  0  0
 38163  1  0  0  0  0
127163  2  0  0  0  0
128164  3  0  0  0  0
129165  3  0  0  0  0
130166  3  0  0  0  0
  8167  1  0  0  0  0
  9167  2  0  0  0  0
131167  1  0  0  0  0
 17168  3  0  0  0  0
132168  1  0  0  0  0
133169  3  0  0  0  0
 24170  1  0  0  0  0
134170  2  0  0  0  0
135171  3  0  0  0  0
136172  3  0  0  0  0
137173  3  0  0  0  0
138174  3  0  0  0  0
139175  3  0  0  0  0
140176  3  0  0  0  0
141177  3  0  0  0  0
142178  3  0  0  0  0
143179  3  0  0  0  0
144180  3  0  0  0  0
145181  3  0  0  0  0
146182  3  0  0  0  0
147183  3  0  0  0  0
148184  3  0  0  0  0
149185  3  0  0  0  0
 38186  1  0  0  0  0
 39186  1  0  0  0  0
150186  2  0  0  0  0
151187  3  0  0  0  0
152188  3  0  0  0  0
  7189  1  0  0  0  0
153189  2  0  0  0  0
  9190  1  0  0  0  0
154190  2  0  0  0  0
 18191  1  0  0  0  0
155191  2  0  0  0  0
156192  3  0  0  0  0
M  END
