 xtb: 6.7.1pre (5071a88)
          08312618343D

121103  0     0  0            999 V2000
    7.0569   -0.1314   -0.0623 C   0  0  0  0  0  0  0  0  0  0  0  0
    6.2518    0.8089    0.8601 C   0  0  0  0  0  0  0  0  0  0  0  0
    6.5342    2.2595    0.4101 C   0  0  0  0  0  0  0  0  0  0  0  0
    6.7683    0.6746    2.2491 C   0  0  0  0  0  0  0  0  0  0  0  0
    7.1825    0.5594    3.3275 N   0  0  0  0  0  0  0  0  0  0  0  0
    4.7708    0.4205    0.7934 C   0  0  0  0  0  0  0  0  0  0  0  0
    3.7821    1.2221    0.2124 C   0  0  0  0  0  0  0  0  0  0  0  0
    2.4540    0.7900    0.1752 C   0  0  0  0  0  0  0  0  0  0  0  0
    2.1221   -0.4466    0.7166 C   0  0  0  0  0  0  0  0  0  0  0  0
    3.0548   -1.2464    1.2814 N   0  0  0  0  0  0  0  0  0  0  0  0
    4.3334   -0.8029    1.3100 C   0  0  0  0  0  0  0  0  0  0  0  0
    0.7325   -0.9183    0.6833 C   0  0  0  0  0  0  0  0  0  0  0  0
   -0.2683   -0.1253    0.1153 N   0  0  0  0  0  0  0  0  0  0  0  0
   -1.4232   -0.7432    0.1769 C   0  0  0  0  0  0  0  0  0  0  0  0
   -2.5644   -0.1489   -0.2936 N   0  0  0  0  0  0  0  0  0  0  0  0
   -3.7831   -0.7424   -0.4997 C   0  0  0  0  0  0  0  0  0  0  0  0
   -4.0252   -1.9396   -0.3855 O   0  0  0  0  0  0  0  0  0  0  0  0
   -4.7741    0.1539   -0.8849 N   0  0  0  0  0  0  0  0  0  0  0  0
   -4.7498    1.5935   -0.6555 C   0  0  0  0  0  0  0  0  0  0  0  0
   -6.2106    1.9761   -0.4758 C   0  0  0  0  0  0  0  0  0  0  0  0
   -6.9277    0.9925   -1.3868 C   0  0  0  0  0  0  0  0  0  0  0  0
   -6.1304   -0.3036   -1.1957 C   0  0  0  0  0  0  0  0  0  0  0  0
   -6.2107   -1.1825   -2.4389 C   0  0  0  0  0  0  0  0  0  0  0  0
   -1.4125   -2.2612    0.9344 S   0  0  0  0  0  0  0  0  0  0  0  0
    0.2832   -2.1328    1.1861 C   0  0  0  0  0  0  0  0  0  0  0  0
    1.0129   -3.2432    1.8608 C   0  0  0  0  0  0  0  0  0  0  0  0
    8.1236    0.1245   -0.0591 H   0  0  0  0  0  0  0  0  0  0  0  0
    6.7019   -0.0708   -1.0981 H   0  0  0  0  0  0  0  0  0  0  0  0
    6.9817   -1.1799    0.2505 H   0  0  0  0  0  0  0  0  0  0  0  0
    5.9812    2.9856    1.0189 H   0  0  0  0  0  0  0  0  0  0  0  0
    6.2625    2.4196   -0.6398 H   0  0  0  0  0  0  0  0  0  0  0  0
    7.5990    2.5062    0.5082 H   0  0  0  0  0  0  0  0  0  0  0  0
    4.0079    2.1911   -0.2239 H   0  0  0  0  0  0  0  0  0  0  0  0
    1.6920    1.4187   -0.2762 H   0  0  0  0  0  0  0  0  0  0  0  0
    5.0220   -1.5009    1.7838 H   0  0  0  0  0  0  0  0  0  0  0  0
   -2.3990    0.7460   -0.7198 H   0  0  0  0  0  0  0  0  0  0  0  0
   -4.3231    2.0631   -1.5483 H   0  0  0  0  0  0  0  0  0  0  0  0
   -4.1475    1.8581    0.2183 H   0  0  0  0  0  0  0  0  0  0  0  0
   -6.5186    1.8112    0.5637 H   0  0  0  0  0  0  0  0  0  0  0  0
   -6.4078    3.0205   -0.7319 H   0  0  0  0  0  0  0  0  0  0  0  0
   -6.8673    1.3456   -2.4239 H   0  0  0  0  0  0  0  0  0  0  0  0
   -7.9845    0.8728   -1.1301 H   0  0  0  0  0  0  0  0  0  0  0  0
   -6.5052   -0.8528   -0.3229 H   0  0  0  0  0  0  0  0  0  0  0  0
   -7.2531   -1.4175   -2.6782 H   0  0  0  0  0  0  0  0  0  0  0  0
   -5.7635   -0.6845   -3.3064 H   0  0  0  0  0  0  0  0  0  0  0  0
   -5.6811   -2.1293   -2.2984 H   0  0  0  0  0  0  0  0  0  0  0  0
    1.7854   -3.6517    1.2013 H   0  0  0  0  0  0  0  0  0  0  0  0
    0.3486   -4.0702    2.1339 H   0  0  0  0  0  0  0  0  0  0  0  0
    1.4853   -2.8882    2.7824 H   0  0  0  0  0  0  0  0  0  0  0  0
    2.1012    0.0000    3.3450 B   0  0  0  0  0  0  0  0  0  0  0  0
   -2.1012    0.0000    3.3450 B   0  0  0  0  0  0  0  0  0  0  0  0
    0.0000    2.1012    3.3450 B   0  0  0  0  0  0  0  0  0  0  0  0
    0.0000   -2.1012    3.3450 B   0  0  0  0  0  0  0  0  0  0  0  0
    3.3450    2.1012    0.0000 B   0  0  0  0  0  0  0  0  0  0  0  0
    3.3450   -2.1012    0.0000 B   0  0  0  0  0  0  0  0  0  0  0  0
    3.3450    0.0000    2.1012 B   0  0  0  0  0  0  0  0  0  0  0  0
    3.3450    0.0000   -2.1012 B   0  0  0  0  0  0  0  0  0  0  0  0
   -3.3450    2.1012    0.0000 B   0  0  0  0  0  0  0  0  0  0  0  0
   -3.3450   -2.1012    0.0000 B   0  0  0  0  0  0  0  0  0  0  0  0
   -3.3450    0.0000    2.1012 B   0  0  0  0  0  0  0  0  0  0  0  0
   -3.3450    0.0000   -2.1012 B   0  0  0  0  0  0  0  0  0  0  0  0
    2.1012    0.0000   -3.3450 B   0  0  0  0  0  0  0  0  0  0  0  0
   -2.1012    0.0000   -3.3450 B   0  0  0  0  0  0  0  0  0  0  0  0
    0.0000    2.1012   -3.3450 B   0  0  0  0  0  0  0  0  0  0  0  0
    0.0000   -2.1012   -3.3450 B   0  0  0  0  0  0  0  0  0  0  0  0
    0.0000    3.3450    2.1012 B   0  0  0  0  0  0  0  0  0  0  0  0
    0.0000    3.3450   -2.1012 B   0  0  0  0  0  0  0  0  0  0  0  0
    0.0000   -3.3450    2.1012 B   0  0  0  0  0  0  0  0  0  0  0  0
    0.0000   -3.3450   -2.1012 B   0  0  0  0  0  0  0  0  0  0  0  0
    2.1012    3.3450    0.0000 B   0  0  0  0  0  0  0  0  0  0  0  0
   -2.1012    3.3450    0.0000 B   0  0  0  0  0  0  0  0  0  0  0  0
    2.1012   -3.3450    0.0000 B   0  0  0  0  0  0  0  0  0  0  0  0
   -2.1012   -3.3450    0.0000 B   0  0  0  0  0  0  0  0  0  0  0  0
    1.4800    1.4800    3.5800 B   0  0  0  0  0  0  0  0  0  0  0  0
   -1.4800    1.4800    3.5800 B   0  0  0  0  0  0  0  0  0  0  0  0
    1.4800   -1.4800    3.5800 B   0  0  0  0  0  0  0  0  0  0  0  0
   -1.4800   -1.4800    3.5800 B   0  0  0  0  0  0  0  0  0  0  0  0
    3.5800    1.4800    1.4800 B   0  0  0  0  0  0  0  0  0  0  0  0
    3.5800   -1.4800    1.4800 B   0  0  0  0  0  0  0  0  0  0  0  0
    3.5800    1.4800   -1.4800 B   0  0  0  0  0  0  0  0  0  0  0  0
    3.5800   -1.4800   -1.4800 B   0  0  0  0  0  0  0  0  0  0  0  0
   -3.5800    1.4800    1.4800 B   0  0  0  0  0  0  0  0  0  0  0  0
   -3.5800   -1.4800    1.4800 B   0  0  0  0  0  0  0  0  0  0  0  0
   -3.5800    1.4800   -1.4800 B   0  0  0  0  0  0  0  0  0  0  0  0
   -3.5800   -1.4800   -1.4800 B   0  0  0  0  0  0  0  0  0  0  0  0
    2.1012    0.0000    3.9200 N   0  0  0  0  0  0  0  0  0  0  0  0
   -2.1012    0.0000    3.9200 N   0  0  0  0  0  0  0  0  0  0  0  0
    0.0000    2.1012    3.9200 N   0  0  0  0  0  0  0  0  0  0  0  0
    0.0000   -2.1012    3.9200 N   0  0  0  0  0  0  0  0  0  0  0  0
    3.9200    2.1012    0.0000 N   0  0  0  0  0  0  0  0  0  0  0  0
    3.9200   -2.1012    0.0000 N   0  0  0  0  0  0  0  0  0  0  0  0
    3.9200    0.0000    2.1012 N   0  0  0  0  0  0  0  0  0  0  0  0
    3.9200    0.0000   -2.1012 N   0  0  0  0  0  0  0  0  0  0  0  0
   -3.9200    2.1012    0.0000 N   0  0  0  0  0  0  0  0  0  0  0  0
   -3.9200   -2.1012    0.0000 N   0  0  0  0  0  0  0  0  0  0  0  0
   -3.9200    0.0000    2.1012 N   0  0  0  0  0  0  0  0  0  0  0  0
   -3.9200    0.0000   -2.1012 N   0  0  0  0  0  0  0  0  0  0  0  0
    2.1012    0.0000   -3.9200 N   0  0  0  0  0  0  0  0  0  0  0  0
   -2.1012    0.0000   -3.9200 N   0  0  0  0  0  0  0  0  0  0  0  0
    0.0000    2.1012   -3.9200 N   0  0  0  0  0  0  0  0  0  0  0  0
    0.0000   -2.1012   -3.9200 N   0  0  0  0  0  0  0  0  0  0  0  0
    0.0000    3.9200    2.1012 N   0  0  0  0  0  0  0  0  0  0  0  0
    0.0000    3.9200   -2.1012 N   0  0  0  0  0  0  0  0  0  0  0  0
    0.0000   -3.9200    2.1012 N   0  0  0  0  0  0  0  0  0  0  0  0
    0.0000   -3.9200   -2.1012 N   0  0  0  0  0  0  0  0  0  0  0  0
    2.1012    3.9200    0.0000 N   0  0  0  0  0  0  0  0  0  0  0  0
   -2.1012    3.9200    0.0000 N   0  0  0  0  0  0  0  0  0  0  0  0
    2.1012   -3.9200    0.0000 N   0  0  0  0  0  0  0  0  0  0  0  0
   -2.1012   -3.9200    0.0000 N   0  0  0  0  0  0  0  0  0  0  0  0
    1.4800    1.4800    4.2200 N   0  0  0  0  0  0  0  0  0  0  0  0
   -1.4800    1.4800    4.2200 N   0  0  0  0  0  0  0  0  0  0  0  0
    1.4800   -1.4800    4.2200 N   0  0  0  0  0  0  0  0  0  0  0  0
   -1.4800   -1.4800    4.2200 N   0  0  0  0  0  0  0  0  0  0  0  0
    4.2200    1.4800    1.4800 N   0  0  0  0  0  0  0  0  0  0  0  0
    4.2200   -1.4800    1.4800 N   0  0  0  0  0  0  0  0  0  0  0  0
    4.2200    1.4800   -1.4800 N   0  0  0  0  0  0  0  0  0  0  0  0
    4.2200   -1.4800   -1.4800 N   0  0  0  0  0  0  0  0  0  0  0  0
   -4.2200    1.4800    1.4800 N   0  0  0  0  0  0  0  0  0  0  0  0
   -4.2200   -1.4800    1.4800 N   0  0  0  0  0  0  0  0  0  0  0  0
   -4.2200    1.4800   -1.4800 N   0  0  0  0  0  0  0  0  0  0  0  0
   -4.2200   -1.4800   -1.4800 N   0  0  0  0  0  0  0  0  0  0  0  0
  1  2  1  0  0  0  0
  2  3  1  0  0  0  0
  2  4  1  0  0  0  0
  4  5  3  0  0  0  0
  2  6  1  0  0  0  0
  6  7  1  0  0  0  0
  7  8  1  0  0  0  0
  8  9  1  0  0  0  0
  9 10  1  0  0  0  0
  6 11  1  0  0  0  0
  9 12  1  0  0  0  0
 12 13  4  0  0  0  0
 13 14  4  0  0  0  0
 14 15  1  0  0  0  0
 15 16  1  0  0  0  0
 16 18  1  0  0  0  0
 18 19  1  0  0  0  0
 19 20  1  0  0  0  0
 20 21  1  0  0  0  0
 18 22  1  0  0  0  0
 21 22  1  0  0  0  0
 22 23  1  0  0  0  0
 14 24  1  0  0  0  0
 12 25  1  0  0  0  0
 24 25  1  0  0  0  0
 25 26  1  0  0  0  0
  1 27  1  0  0  0  0
  1 28  1  0  0  0  0
  1 29  1  0  0  0  0
  3 30  1  0  0  0  0
  3 31  1  0  0  0  0
  3 32  1  0  0  0  0
  8 34  1  0  0  0  0
 15 36  1  0  0  0  0
 20 39  1  0  0  0  0
 20 40  1  0  0  0  0
 21 41  1  0  0  0  0
 21 42  1  0  0  0  0
 22 43  1  0  0  0  0
 23 44  1  0  0  0  0
 23 45  1  0  0  0  0
 23 46  1  0  0  0  0
 26 47  1  0  0  0  0
 26 49  1  0  0  0  0
  7 54  1  0  0  0  0
 24 59  1  0  0  0  0
 25 68  1  0  0  0  0
 26 68  1  0  0  0  0
 58 71  1  0  0  0  0
 24 73  1  0  0  0  0
 10 79  2  0  0  0  0
 50 86  3  0  0  0  0
 51 87  3  0  0  0  0
 52 88  3  0  0  0  0
 53 89  3  0  0  0  0
  7 90  1  0  0  0  0
 33 90  1  0  0  0  0
 54 90  2  0  0  0  0
 55 91  3  0  0  0  0
 11 92  1  0  0  0  0
 56 92  3  0  0  0  0
 57 93  3  0  0  0  0
 19 94  1  0  0  0  0
 38 94  1  0  0  0  0
 58 94  2  0  0  0  0
 17 95  3  0  0  0  0
 59 95  1  0  0  0  0
 60 96  3  0  0  0  0
 61 97  3  0  0  0  0
 62 98  3  0  0  0  0
 63 99  3  0  0  0  0
 64100  3  0  0  0  0
 65101  3  0  0  0  0
 66102  3  0  0  0  0
 67103  3  0  0  0  0
 26104  1  0  0  0  0
 48104  1  0  0  0  0
 68104  2  0  0  0  0
 69105  3  0  0  0  0
 70106  3  0  0  0  0
 71107  3  0  0  0  0
 72108  3  0  0  0  0
 73109  3  0  0  0  0
 74110  3  0  0  0  0
 75111  3  0  0  0  0
 76112  3  0  0  0  0
 77113  3  0  0  0  0
  6114  1  0  0  0  0
  7114  1  0  0  0  0
 78114  2  0  0  0  0
 11115  2  0  0  0  0
 35115  1  0  0  0  0
 79115  1  0  0  0  0
 80116  3  0  0  0  0
 81117  3  0  0  0  0
 82118  3  0  0  0  0
 83119  3  0  0  0  0
 19120  1  0  0  0  0
 37120  1  0  0  0  0
 84120  2  0  0  0  0
 16121  1  0  0  0  0
 17121  1  0  0  0  0
 85121  2  0  0  0  0
M  END
