 xtb: 6.7.1pre (5071a88)
          08312622223D

121159  0     0  0            999 V2000
    7.0569   -0.1314   10.9008 C   0  0  0  0  0  0  0  0  0  0  0  0
    6.2518    0.8089   11.8232 C   0  0  0  0  0  0  0  0  0  0  0  0
    6.5342    2.2595   11.3732 C   0  0  0  0  0  0  0  0  0  0  0  0
    6.7683    0.6746   13.2122 C   0  0  0  0  0  0  0  0  0  0  0  0
    7.1825    0.5594   14.2906 N   0  0  0  0  0  0  0  0  0  0  0  0
    4.7708    0.4205   11.7565 C   0  0  0  0  0  0  0  0  0  0  0  0
    3.7821    1.2221   11.1754 C   0  0  0  0  0  0  0  0  0  0  0  0
    2.4540    0.7900   11.1382 C   0  0  0  0  0  0  0  0  0  0  0  0
    2.1221   -0.4466   11.6797 C   0  0  0  0  0  0  0  0  0  0  0  0
    3.0548   -1.2464   12.2445 N   0  0  0  0  0  0  0  0  0  0  0  0
    4.3334   -0.8029   12.2731 C   0  0  0  0  0  0  0  0  0  0  0  0
    0.7325   -0.9183   11.6464 C   0  0  0  0  0  0  0  0  0  0  0  0
   -0.2683   -0.1253   11.0784 N   0  0  0  0  0  0  0  0  0  0  0  0
   -1.4232   -0.7432   11.1399 C   0  0  0  0  0  0  0  0  0  0  0  0
   -2.5644   -0.1489   10.6695 N   0  0  0  0  0  0  0  0  0  0  0  0
   -3.7831   -0.7424   10.4634 C   0  0  0  0  0  0  0  0  0  0  0  0
   -4.0252   -1.9396   10.5776 O   0  0  0  0  0  0  0  0  0  0  0  0
   -4.7741    0.1539   10.0781 N   0  0  0  0  0  0  0  0  0  0  0  0
   -4.7498    1.5935   10.3076 C   0  0  0  0  0  0  0  0  0  0  0  0
   -6.2106    1.9761   10.4873 C   0  0  0  0  0  0  0  0  0  0  0  0
   -6.9277    0.9925    9.5763 C   0  0  0  0  0  0  0  0  0  0  0  0
   -6.1304   -0.3036    9.7674 C   0  0  0  0  0  0  0  0  0  0  0  0
   -6.2107   -1.1825    8.5241 C   0  0  0  0  0  0  0  0  0  0  0  0
   -1.4125   -2.2612   11.8975 S   0  0  0  0  0  0  0  0  0  0  0  0
    0.2832   -2.1328   12.1492 C   0  0  0  0  0  0  0  0  0  0  0  0
    1.0129   -3.2432   12.8239 C   0  0  0  0  0  0  0  0  0  0  0  0
    8.1236    0.1245   10.9040 H   0  0  0  0  0  0  0  0  0  0  0  0
    6.7019   -0.0708    9.8650 H   0  0  0  0  0  0  0  0  0  0  0  0
    6.9817   -1.1799   11.2136 H   0  0  0  0  0  0  0  0  0  0  0  0
    5.9812    2.9856   11.9820 H   0  0  0  0  0  0  0  0  0  0  0  0
    6.2625    2.4196   10.3233 H   0  0  0  0  0  0  0  0  0  0  0  0
    7.5990    2.5062   11.4713 H   0  0  0  0  0  0  0  0  0  0  0  0
    4.0079    2.1911   10.7392 H   0  0  0  0  0  0  0  0  0  0  0  0
    1.6920    1.4187   10.6869 H   0  0  0  0  0  0  0  0  0  0  0  0
    5.0220   -1.5009   12.7469 H   0  0  0  0  0  0  0  0  0  0  0  0
   -2.3990    0.7460   10.2433 H   0  0  0  0  0  0  0  0  0  0  0  0
   -4.3231    2.0631    9.4148 H   0  0  0  0  0  0  0  0  0  0  0  0
   -4.1475    1.8581   11.1814 H   0  0  0  0  0  0  0  0  0  0  0  0
   -6.5186    1.8112   11.5268 H   0  0  0  0  0  0  0  0  0  0  0  0
   -6.4078    3.0205   10.2312 H   0  0  0  0  0  0  0  0  0  0  0  0
   -6.8673    1.3456    8.5392 H   0  0  0  0  0  0  0  0  0  0  0  0
   -7.9845    0.8728    9.8330 H   0  0  0  0  0  0  0  0  0  0  0  0
   -6.5052   -0.8528   10.6402 H   0  0  0  0  0  0  0  0  0  0  0  0
   -7.2531   -1.4175    8.2848 H   0  0  0  0  0  0  0  0  0  0  0  0
   -5.7635   -0.6845    7.6567 H   0  0  0  0  0  0  0  0  0  0  0  0
   -5.6811   -2.1293    8.6647 H   0  0  0  0  0  0  0  0  0  0  0  0
    1.7854   -3.6517   12.1644 H   0  0  0  0  0  0  0  0  0  0  0  0
    0.3486   -4.0702   13.0969 H   0  0  0  0  0  0  0  0  0  0  0  0
    1.4853   -2.8882   13.7455 H   0  0  0  0  0  0  0  0  0  0  0  0
    3.4592   -1.4546    1.6280 B   0  0  0  0  0  0  0  0  0  0  0  0
    3.4564    1.1299    0.9400 N   0  0  0  0  0  0  0  0  0  0  0  0
    2.5399    2.3625   -1.2610 B   0  0  0  0  0  0  0  0  0  0  0  0
    2.2931   -0.6416   -2.7306 N   0  0  0  0  0  0  0  0  0  0  0  0
    0.6905   -3.5611    2.7027 B   0  0  0  0  0  0  0  0  0  0  0  0
   -2.9397   -2.6548    1.7095 N   0  0  0  0  0  0  0  0  0  0  0  0
   -1.0382    4.0851    1.8312 B   0  0  0  0  0  0  0  0  0  0  0  0
   -0.6193    0.0177   -3.9419 N   0  0  0  0  0  0  0  0  0  0  0  0
   -0.4737    1.4453   -4.0917 B   0  0  0  0  0  0  0  0  0  0  0  0
    1.2096   -3.7868   -1.7394 N   0  0  0  0  0  0  0  0  0  0  0  0
   -3.8445    2.2094   -0.4937 B   0  0  0  0  0  0  0  0  0  0  0  0
   -2.7729    2.7636   -1.2118 N   0  0  0  0  0  0  0  0  0  0  0  0
    1.4057    0.8181   -4.8893 B   0  0  0  0  0  0  0  0  0  0  0  0
   -0.2358    3.3642    2.8335 N   0  0  0  0  0  0  0  0  0  0  0  0
    0.8983   -2.8798   -2.8138 B   0  0  0  0  0  0  0  0  0  0  0  0
   -0.4918    3.7666   -1.0101 N   0  0  0  0  0  0  0  0  0  0  0  0
   -0.8060    2.1823    3.2819 B   0  0  0  0  0  0  0  0  0  0  0  0
    1.6561   -1.2744    3.5036 N   0  0  0  0  0  0  0  0  0  0  0  0
   -0.2485    3.4699   -2.3799 B   0  0  0  0  0  0  0  0  0  0  0  0
    1.3087    0.0689    3.8170 N   0  0  0  0  0  0  0  0  0  0  0  0
   -1.5974   -0.5599   -3.0847 B   0  0  0  0  0  0  0  0  0  0  0  0
   -3.8325    1.7768    0.8316 N   0  0  0  0  0  0  0  0  0  0  0  0
    0.3376    4.4960    1.1839 B   0  0  0  0  0  0  0  0  0  0  0  0
    0.0433   -0.0140    4.4567 N   0  0  0  0  0  0  0  0  0  0  0  0
   -2.7088    2.2268    1.6012 B   0  0  0  0  0  0  0  0  0  0  0  0
    3.7727   -0.1326   -0.7655 N   0  0  0  0  0  0  0  0  0  0  0  0
   -2.2534   -3.6394    1.0085 B   0  0  0  0  0  0  0  0  0  0  0  0
    1.0558    3.7334    2.2357 N   0  0  0  0  0  0  0  0  0  0  0  0
   -1.8256   -0.7775    3.2198 B   0  0  0  0  0  0  0  0  0  0  0  0
   -2.4368   -3.6019   -0.4508 N   0  0  0  0  0  0  0  0  0  0  0  0
    3.0187   -1.0737   -1.5028 B   0  0  0  0  0  0  0  0  0  0  0  0
   -3.1580   -1.2526   -0.3843 N   0  0  0  0  0  0  0  0  0  0  0  0
    2.0347    2.9223    1.5617 B   0  0  0  0  0  0  0  0  0  0  0  0
   -0.5074   -2.9001   -2.4328 N   0  0  0  0  0  0  0  0  0  0  0  0
   -1.6735   -2.1129   -2.4916 B   0  0  0  0  0  0  0  0  0  0  0  0
    0.5901    3.9646   -0.1102 N   0  0  0  0  0  0  0  0  0  0  0  0
    1.0903    2.9596   -3.1825 B   0  0  0  0  0  0  0  0  0  0  0  0
    0.0774   -4.3592    1.7213 N   0  0  0  0  0  0  0  0  0  0  0  0
   -1.7840    3.4524   -0.4082 B   0  0  0  0  0  0  0  0  0  0  0  0
   -2.0135    3.4185    1.0316 N   0  0  0  0  0  0  0  0  0  0  0  0
    1.4659   -4.2121    1.4991 B   0  0  0  0  0  0  0  0  0  0  0  0
   -0.7980    1.0642    4.1946 N   0  0  0  0  0  0  0  0  0  0  0  0
   -2.6662   -2.4021   -1.1753 B   0  0  0  0  0  0  0  0  0  0  0  0
   -1.0744   -4.4843    0.9912 N   0  0  0  0  0  0  0  0  0  0  0  0
   -2.5037    0.4914   -2.1091 B   0  0  0  0  0  0  0  0  0  0  0  0
    2.3527   -3.8873    0.4531 N   0  0  0  0  0  0  0  0  0  0  0  0
    3.9123   -0.2024    0.7259 B   0  0  0  0  0  0  0  0  0  0  0  0
    1.9285    1.9570   -2.4651 N   0  0  0  0  0  0  0  0  0  0  0  0
    1.0012    2.2544   -4.6225 B   0  0  0  0  0  0  0  0  0  0  0  0
   -4.1860    0.8290   -0.3475 N   0  0  0  0  0  0  0  0  0  0  0  0
   -1.3389    2.4537   -3.1149 B   0  0  0  0  0  0  0  0  0  0  0  0
   -2.3596    1.9326   -2.3058 N   0  0  0  0  0  0  0  0  0  0  0  0
    3.0731   -2.6455    0.6011 B   0  0  0  0  0  0  0  0  0  0  0  0
    2.3352   -3.6737   -0.9709 N   0  0  0  0  0  0  0  0  0  0  0  0
    2.2179    0.5458    2.8084 B   0  0  0  0  0  0  0  0  0  0  0  0
   -2.0264    0.6119    3.6015 N   0  0  0  0  0  0  0  0  0  0  0  0
   -1.1017   -4.1838   -0.4410 B   0  0  0  0  0  0  0  0  0  0  0  0
   -3.2181    0.0417   -0.9586 N   0  0  0  0  0  0  0  0  0  0  0  0
    3.4478    1.2586   -0.5141 B   0  0  0  0  0  0  0  0  0  0  0  0
    2.5821    1.6330    1.9365 N   0  0  0  0  0  0  0  0  0  0  0  0
    1.4721   -1.5550   -3.5156 B   0  0  0  0  0  0  0  0  0  0  0  0
   -2.1026    1.7542    2.7608 N   0  0  0  0  0  0  0  0  0  0  0  0
    2.0408    0.7119   -3.2115 B   0  0  0  0  0  0  0  0  0  0  0  0
   -2.7209   -1.3417    2.3206 N   0  0  0  0  0  0  0  0  0  0  0  0
    0.6586   -0.5389   -4.4869 B   0  0  0  0  0  0  0  0  0  0  0  0
   -0.1687   -3.7594   -1.3565 N   0  0  0  0  0  0  0  0  0  0  0  0
    0.4856   -2.1056    3.4338 B   0  0  0  0  0  0  0  0  0  0  0  0
   -0.5873   -1.2050    3.8245 N   0  0  0  0  0  0  0  0  0  0  0  0
   -3.2244   -1.4514    1.0003 B   0  0  0  0  0  0  0  0  0  0  0  0
    2.6713   -0.8555    2.6211 N   0  0  0  0  0  0  0  0  0  0  0  0
    1.8786    3.3393   -0.1064 B   0  0  0  0  0  0  0  0  0  0  0  0
    2.8769   -2.3318   -0.7936 N   0  0  0  0  0  0  0  0  0  0  0  0
  1  2  1  0  0  0  0
  2  3  1  0  0  0  0
  2  4  1  0  0  0  0
  4  5  3  0  0  0  0
  2  6  1  0  0  0  0
  6  7  4  0  0  0  0
  7  8  4  0  0  0  0
  8  9  4  0  0  0  0
  9 10  4  0  0  0  0
  6 11  4  0  0  0  0
 10 11  4  0  0  0  0
  9 12  1  0  0  0  0
 12 13  1  0  0  0  0
 13 14  2  0  0  0  0
 14 15  1  0  0  0  0
 15 16  1  0  0  0  0
 16 17  2  0  0  0  0
 16 18  1  0  0  0  0
 18 19  1  0  0  0  0
 19 20  1  0  0  0  0
 20 21  1  0  0  0  0
 18 22  1  0  0  0  0
 21 22  1  0  0  0  0
 22 23  1  0  0  0  0
 14 24  1  0  0  0  0
 12 25  2  0  0  0  0
 24 25  1  0  0  0  0
 25 26  1  0  0  0  0
  1 27  1  0  0  0  0
  1 28  1  0  0  0  0
  1 29  1  0  0  0  0
  3 30  1  0  0  0  0
  3 31  1  0  0  0  0
  3 32  1  0  0  0  0
  7 33  1  0  0  0  0
  8 34  1  0  0  0  0
 11 35  1  0  0  0  0
 15 36  1  0  0  0  0
 19 37  1  0  0  0  0
 19 38  1  0  0  0  0
 20 39  1  0  0  0  0
 20 40  1  0  0  0  0
 21 41  1  0  0  0  0
 21 42  1  0  0  0  0
 22 43  1  0  0  0  0
 23 44  1  0  0  0  0
 23 45  1  0  0  0  0
 23 46  1  0  0  0  0
 26 47  1  0  0  0  0
 26 48  1  0  0  0  0
 26 49  1  0  0  0  0
 57 58  1  0  0  0  0
 60 61  1  0  0  0  0
 56 63  1  0  0  0  0
 59 64  1  0  0  0  0
 63 66  1  0  0  0  0
 65 68  1  0  0  0  0
 67 69  1  0  0  0  0
 57 70  1  0  0  0  0
 60 71  1  0  0  0  0
 56 72  1  0  0  0  0
 69 73  1  0  0  0  0
 71 74  1  0  0  0  0
 55 76  1  0  0  0  0
 63 77  1  0  0  0  0
 72 77  1  0  0  0  0
 76 79  1  0  0  0  0
 53 80  1  0  0  0  0
 75 80  1  0  0  0  0
 77 82  1  0  0  0  0
 64 83  1  0  0  0  0
 70 84  1  0  0  0  0
 83 84  1  0  0  0  0
 65 85  1  0  0  0  0
 72 85  1  0  0  0  0
 68 86  1  0  0  0  0
 54 87  1  0  0  0  0
 61 88  1  0  0  0  0
 65 88  1  0  0  0  0
 56 89  1  0  0  0  0
 74 89  1  0  0  0  0
 88 89  1  0  0  0  0
 54 90  1  0  0  0  0
 87 90  1  0  0  0  0
 66 91  1  0  0  0  0
 73 91  1  0  0  0  0
 79 92  1  0  0  0  0
 81 92  1  0  0  0  0
 84 92  1  0  0  0  0
 76 93  1  0  0  0  0
 87 93  1  0  0  0  0
 70 94  1  0  0  0  0
 90 95  1  0  0  0  0
 50 96  1  0  0  0  0
 51 96  1  0  0  0  0
 75 96  1  0  0  0  0
 52 97  1  0  0  0  0
 86 97  1  0  0  0  0
 58 98  1  0  0  0  0
 62 98  1  0  0  0  0
 86 98  1  0  0  0  0
 60 99  1  0  0  0  0
 71 99  1  0  0  0  0
 58100  1  0  0  0  0
 68100  1  0  0  0  0
 61101  1  0  0  0  0
 94101  1  0  0  0  0
100101  1  0  0  0  0
 50102  1  0  0  0  0
 95102  1  0  0  0  0
 59103  1  0  0  0  0
 95103  1  0  0  0  0
 69104  1  0  0  0  0
 78105  1  0  0  0  0
 91105  1  0  0  0  0
 79106  1  0  0  0  0
 93106  1  0  0  0  0
 81107  1  0  0  0  0
 94107  1  0  0  0  0
 99107  1  0  0  0  0
 51108  1  0  0  0  0
 52108  1  0  0  0  0
 75108  1  0  0  0  0
 51109  1  0  0  0  0
 82109  1  0  0  0  0
104109  1  0  0  0  0
 53110  1  0  0  0  0
 64110  1  0  0  0  0
 66111  1  0  0  0  0
 74111  1  0  0  0  0
105111  1  0  0  0  0
 53112  1  0  0  0  0
 62112  1  0  0  0  0
 97112  1  0  0  0  0
 55113  1  0  0  0  0
 78113  1  0  0  0  0
 57114  1  0  0  0  0
 62114  1  0  0  0  0
110114  1  0  0  0  0
 59115  1  0  0  0  0
 83115  1  0  0  0  0
106115  1  0  0  0  0
 54116  1  0  0  0  0
 67116  1  0  0  0  0
 73117  1  0  0  0  0
 78117  1  0  0  0  0
116117  1  0  0  0  0
 55118  1  0  0  0  0
 81118  1  0  0  0  0
113118  1  0  0  0  0
 50119  1  0  0  0  0
 67119  1  0  0  0  0
104119  1  0  0  0  0
 52120  1  0  0  0  0
 82120  1  0  0  0  0
 85120  1  0  0  0  0
 80121  1  0  0  0  0
102121  1  0  0  0  0
103121  1  0  0  0  0
M  END
