 xtb: 6.7.1pre (5071a88)
          08312621133D

185227  0     0  0            999 V2000
   -1.8890   -4.7881    9.5203 C   0  0  0  0  0  0  0  0  0  0  0  0
   -1.5055   -3.3719    9.8195 C   0  0  0  0  0  0  0  0  0  0  0  0
   -1.2649   -2.5249    8.9712 O   0  0  0  0  0  0  0  0  0  0  0  0
   -1.4424   -3.1819   11.1644 O   0  0  0  0  0  0  0  0  0  0  0  0
   -1.2035   -1.8334   11.5553 C   0  0  0  0  0  0  0  0  0  0  0  0
   -2.4191   -0.8927   11.4034 C   0  0  0  0  0  0  0  0  0  0  0  0
   -3.4954   -1.3532   10.9981 O   0  0  0  0  0  0  0  0  0  0  0  0
   -2.3142    0.6079   11.7925 C   0  0  0  0  0  0  0  0  0  0  0  0
   -0.8598    1.1517   11.8524 C   0  0  0  0  0  0  0  0  0  0  0  0
   -2.9763    1.3213   10.5442 C   0  0  0  0  0  0  0  0  0  0  0  0
   -2.0044    1.5401    9.5147 O   0  0  0  0  0  0  0  0  0  0  0  0
   -3.6205    2.6535   10.8804 C   0  0  0  0  0  0  0  0  0  0  0  0
   -4.7665    2.4199   11.8366 C   0  0  0  0  0  0  0  0  0  0  0  0
   -5.7019    1.4384   11.3277 O   0  0  0  0  0  0  0  0  0  0  0  0
   -5.5683    0.6285   12.5201 C   0  0  0  0  0  0  0  0  0  0  0  0
   -4.4740    1.5609   13.0946 C   0  0  0  0  0  0  0  0  0  0  0  0
   -4.7517    2.2282   14.3701 O   0  0  0  0  0  0  0  0  0  0  0  0
   -5.9627    2.8091   14.6006 C   0  0  0  0  0  0  0  0  0  0  0  0
   -5.9918    3.3797   15.9864 C   0  0  0  0  0  0  0  0  0  0  0  0
   -6.9002    2.8724   13.8226 O   0  0  0  0  0  0  0  0  0  0  0  0
   -2.9823    0.9900   13.1916 C   0  0  0  0  0  0  0  0  0  0  0  0
   -2.8611    0.1859   14.5892 C   0  0  0  0  0  0  0  0  0  0  0  0
   -2.4236    1.2581   15.5172 O   0  0  0  0  0  0  0  0  0  0  0  0
   -3.0127    1.3747   16.7301 C   0  0  0  0  0  0  0  0  0  0  0  0
   -3.8413    0.6010   17.1822 O   0  0  0  0  0  0  0  0  0  0  0  0
   -2.5091    2.5715   17.4524 C   0  0  0  0  0  0  0  0  0  0  0  0
   -3.0999    2.8988   18.6804 C   0  0  0  0  0  0  0  0  0  0  0  0
   -2.6670    4.0188   19.3923 C   0  0  0  0  0  0  0  0  0  0  0  0
   -1.6410    4.8139   18.8835 C   0  0  0  0  0  0  0  0  0  0  0  0
   -1.0450    4.4913   17.6646 C   0  0  0  0  0  0  0  0  0  0  0  0
   -1.4759    3.3726   16.9480 C   0  0  0  0  0  0  0  0  0  0  0  0
   -2.1046   -1.1513   15.0676 C   0  0  0  0  0  0  0  0  0  0  0  0
   -2.9605   -1.7192   16.1149 O   0  0  0  0  0  0  0  0  0  0  0  0
   -0.7585   -0.9599   15.8087 C   0  0  0  0  0  0  0  0  0  0  0  0
    0.4730   -0.8157   14.9153 C   0  0  0  0  0  0  0  0  0  0  0  0
    1.5874   -1.4963   15.5179 O   0  0  0  0  0  0  0  0  0  0  0  0
    2.2082   -0.8203   16.5207 C   0  0  0  0  0  0  0  0  0  0  0  0
    1.8390    0.2485   17.0002 O   0  0  0  0  0  0  0  0  0  0  0  0
    3.4247   -1.5818   17.0418 C   0  0  0  0  0  0  0  0  0  0  0  0
    3.9527   -0.9170   18.2099 O   0  0  0  0  0  0  0  0  0  0  0  0
    4.5108   -1.7232   15.9429 C   0  0  0  0  0  0  0  0  0  0  0  0
    5.3311   -0.5203   15.8103 N   0  0  0  0  0  0  0  0  0  0  0  0
    4.9030    0.5715   15.0916 C   0  0  0  0  0  0  0  0  0  0  0  0
    3.8533    0.5823   14.4582 O   0  0  0  0  0  0  0  0  0  0  0  0
    5.7639    1.7832   15.1520 C   0  0  0  0  0  0  0  0  0  0  0  0
    7.1466    1.7002   15.3620 C   0  0  0  0  0  0  0  0  0  0  0  0
    7.9153    2.8654   15.4115 C   0  0  0  0  0  0  0  0  0  0  0  0
    7.3097    4.1110   15.2453 C   0  0  0  0  0  0  0  0  0  0  0  0
    5.9360    4.1970   15.0212 C   0  0  0  0  0  0  0  0  0  0  0  0
    5.1639    3.0354   14.9699 C   0  0  0  0  0  0  0  0  0  0  0  0
    5.4407   -2.9129   16.1568 C   0  0  0  0  0  0  0  0  0  0  0  0
    5.9915   -3.2214   17.4107 C   0  0  0  0  0  0  0  0  0  0  0  0
    6.8580   -4.3065   17.5623 C   0  0  0  0  0  0  0  0  0  0  0  0
    7.1955   -5.0916   16.4628 C   0  0  0  0  0  0  0  0  0  0  0  0
    6.6717   -4.7901   15.2086 C   0  0  0  0  0  0  0  0  0  0  0  0
    5.8050   -3.7063   15.0552 C   0  0  0  0  0  0  0  0  0  0  0  0
    0.3136   -1.3266   13.4901 C   0  0  0  0  0  0  0  0  0  0  0  0
    1.5465   -1.0799   12.6419 C   0  0  0  0  0  0  0  0  0  0  0  0
   -0.8665   -1.8264   13.0277 C   0  0  0  0  0  0  0  0  0  0  0  0
   -1.9445   -2.2952   14.0254 C   0  0  0  0  0  0  0  0  0  0  0  0
   -3.3535   -2.7260   13.5360 C   0  0  0  0  0  0  0  0  0  0  0  0
   -1.3837   -3.6211   14.6457 C   0  0  0  0  0  0  0  0  0  0  0  0
   -2.8458   -5.0210    9.9947 H   0  0  0  0  0  0  0  0  0  0  0  0
   -2.0004   -4.9128    8.4395 H   0  0  0  0  0  0  0  0  0  0  0  0
   -1.1085   -5.4658    9.8746 H   0  0  0  0  0  0  0  0  0  0  0  0
   -0.4066   -1.4253   10.9318 H   0  0  0  0  0  0  0  0  0  0  0  0
   -0.8362    2.2393   11.7078 H   0  0  0  0  0  0  0  0  0  0  0  0
   -0.4106    0.9990   12.8328 H   0  0  0  0  0  0  0  0  0  0  0  0
   -0.2075    0.7169   11.0904 H   0  0  0  0  0  0  0  0  0  0  0  0
   -3.7403    0.6892   10.0801 H   0  0  0  0  0  0  0  0  0  0  0  0
   -2.4935    1.6837    8.6833 H   0  0  0  0  0  0  0  0  0  0  0  0
   -2.8894    3.3492   11.3082 H   0  0  0  0  0  0  0  0  0  0  0  0
   -3.9834    3.1351    9.9638 H   0  0  0  0  0  0  0  0  0  0  0  0
   -5.2793    3.3690   12.0292 H   0  0  0  0  0  0  0  0  0  0  0  0
   -5.2715   -0.3900   12.2782 H   0  0  0  0  0  0  0  0  0  0  0  0
   -6.5103    0.5693   13.0722 H   0  0  0  0  0  0  0  0  0  0  0  0
   -5.1522    4.0657   16.1245 H   0  0  0  0  0  0  0  0  0  0  0  0
   -5.9579    2.5717   16.7205 H   0  0  0  0  0  0  0  0  0  0  0  0
   -6.9193    3.9426   16.1264 H   0  0  0  0  0  0  0  0  0  0  0  0
   -2.4453    1.9279   13.4197 H   0  0  0  0  0  0  0  0  0  0  0  0
   -3.9103   -0.0294   14.8366 H   0  0  0  0  0  0  0  0  0  0  0  0
   -3.8991    2.2830   19.0891 H   0  0  0  0  0  0  0  0  0  0  0  0
   -3.1270    4.2684   20.3455 H   0  0  0  0  0  0  0  0  0  0  0  0
   -1.3011    5.6838   19.4408 H   0  0  0  0  0  0  0  0  0  0  0  0
   -0.2394    5.1089   17.2744 H   0  0  0  0  0  0  0  0  0  0  0  0
   -0.9903    3.1364   16.0046 H   0  0  0  0  0  0  0  0  0  0  0  0
   -3.2713   -1.0049   16.7101 H   0  0  0  0  0  0  0  0  0  0  0  0
   -0.7956   -0.1223   16.5130 H   0  0  0  0  0  0  0  0  0  0  0  0
   -0.6042   -1.8088   16.4923 H   0  0  0  0  0  0  0  0  0  0  0  0
    0.7055    0.2555   14.8279 H   0  0  0  0  0  0  0  0  0  0  0  0
    3.0627   -2.5624   17.3730 H   0  0  0  0  0  0  0  0  0  0  0  0
    3.5877   -0.0082   18.1859 H   0  0  0  0  0  0  0  0  0  0  0  0
    4.0066   -1.8813   14.9816 H   0  0  0  0  0  0  0  0  0  0  0  0
    6.0571   -0.4016   16.5050 H   0  0  0  0  0  0  0  0  0  0  0  0
    7.6442    0.7396   15.4616 H   0  0  0  0  0  0  0  0  0  0  0  0
    8.9893    2.8021   15.5706 H   0  0  0  0  0  0  0  0  0  0  0  0
    7.9112    5.0164   15.2814 H   0  0  0  0  0  0  0  0  0  0  0  0
    5.4665    5.1677   14.8827 H   0  0  0  0  0  0  0  0  0  0  0  0
    4.0931    3.1080   14.7908 H   0  0  0  0  0  0  0  0  0  0  0  0
    5.7560   -2.6218   18.2875 H   0  0  0  0  0  0  0  0  0  0  0  0
    7.2710   -4.5371   18.5412 H   0  0  0  0  0  0  0  0  0  0  0  0
    7.8700   -5.9353   16.5827 H   0  0  0  0  0  0  0  0  0  0  0  0
    6.9400   -5.3968   14.3474 H   0  0  0  0  0  0  0  0  0  0  0  0
    5.4166   -3.4819   14.0633 H   0  0  0  0  0  0  0  0  0  0  0  0
    2.4191   -1.5538   13.1029 H   0  0  0  0  0  0  0  0  0  0  0  0
    1.4812   -1.5070   11.6395 H   0  0  0  0  0  0  0  0  0  0  0  0
    1.7509   -0.0094   12.5498 H   0  0  0  0  0  0  0  0  0  0  0  0
   -3.9038   -3.2496   14.3287 H   0  0  0  0  0  0  0  0  0  0  0  0
   -3.3149   -3.4226   12.6944 H   0  0  0  0  0  0  0  0  0  0  0  0
   -3.9825   -1.8792   13.2690 H   0  0  0  0  0  0  0  0  0  0  0  0
   -1.3566   -4.4168   13.8899 H   0  0  0  0  0  0  0  0  0  0  0  0
   -2.0088   -3.9803   15.4712 H   0  0  0  0  0  0  0  0  0  0  0  0
   -0.3642   -3.5306   15.0330 H   0  0  0  0  0  0  0  0  0  0  0  0
    3.4592   -1.4546    1.6280 B   0  0  0  0  0  0  0  0  0  0  0  0
    3.4564    1.1299    0.9400 N   0  0  0  0  0  0  0  0  0  0  0  0
    2.5399    2.3625   -1.2610 B   0  0  0  0  0  0  0  0  0  0  0  0
    2.2931   -0.6416   -2.7306 N   0  0  0  0  0  0  0  0  0  0  0  0
    0.6905   -3.5611    2.7027 B   0  0  0  0  0  0  0  0  0  0  0  0
   -2.9397   -2.6548    1.7095 N   0  0  0  0  0  0  0  0  0  0  0  0
   -1.0382    4.0851    1.8312 B   0  0  0  0  0  0  0  0  0  0  0  0
   -0.6193    0.0177   -3.9419 N   0  0  0  0  0  0  0  0  0  0  0  0
   -0.4737    1.4453   -4.0917 B   0  0  0  0  0  0  0  0  0  0  0  0
    1.2096   -3.7868   -1.7394 N   0  0  0  0  0  0  0  0  0  0  0  0
   -3.8445    2.2094   -0.4937 B   0  0  0  0  0  0  0  0  0  0  0  0
   -2.7729    2.7636   -1.2118 N   0  0  0  0  0  0  0  0  0  0  0  0
    1.4057    0.8181   -4.8893 B   0  0  0  0  0  0  0  0  0  0  0  0
   -0.2358    3.3642    2.8335 N   0  0  0  0  0  0  0  0  0  0  0  0
    0.8983   -2.8798   -2.8138 B   0  0  0  0  0  0  0  0  0  0  0  0
   -0.4918    3.7666   -1.0101 N   0  0  0  0  0  0  0  0  0  0  0  0
   -0.8060    2.1823    3.2819 B   0  0  0  0  0  0  0  0  0  0  0  0
    1.6561   -1.2744    3.5036 N   0  0  0  0  0  0  0  0  0  0  0  0
   -0.2485    3.4699   -2.3799 B   0  0  0  0  0  0  0  0  0  0  0  0
    1.3087    0.0689    3.8170 N   0  0  0  0  0  0  0  0  0  0  0  0
   -1.5974   -0.5599   -3.0847 B   0  0  0  0  0  0  0  0  0  0  0  0
   -3.8325    1.7768    0.8316 N   0  0  0  0  0  0  0  0  0  0  0  0
    0.3376    4.4960    1.1839 B   0  0  0  0  0  0  0  0  0  0  0  0
    0.0433   -0.0140    4.4567 N   0  0  0  0  0  0  0  0  0  0  0  0
   -2.7088    2.2268    1.6012 B   0  0  0  0  0  0  0  0  0  0  0  0
    3.7727   -0.1326   -0.7655 N   0  0  0  0  0  0  0  0  0  0  0  0
   -2.2534   -3.6394    1.0085 B   0  0  0  0  0  0  0  0  0  0  0  0
    1.0558    3.7334    2.2357 N   0  0  0  0  0  0  0  0  0  0  0  0
   -1.8256   -0.7775    3.2198 B   0  0  0  0  0  0  0  0  0  0  0  0
   -2.4368   -3.6019   -0.4508 N   0  0  0  0  0  0  0  0  0  0  0  0
    3.0187   -1.0737   -1.5028 B   0  0  0  0  0  0  0  0  0  0  0  0
   -3.1580   -1.2526   -0.3843 N   0  0  0  0  0  0  0  0  0  0  0  0
    2.0347    2.9223    1.5617 B   0  0  0  0  0  0  0  0  0  0  0  0
   -0.5074   -2.9001   -2.4328 N   0  0  0  0  0  0  0  0  0  0  0  0
   -1.6735   -2.1129   -2.4916 B   0  0  0  0  0  0  0  0  0  0  0  0
    0.5901    3.9646   -0.1102 N   0  0  0  0  0  0  0  0  0  0  0  0
    1.0903    2.9596   -3.1825 B   0  0  0  0  0  0  0  0  0  0  0  0
    0.0774   -4.3592    1.7213 N   0  0  0  0  0  0  0  0  0  0  0  0
   -1.7840    3.4524   -0.4082 B   0  0  0  0  0  0  0  0  0  0  0  0
   -2.0135    3.4185    1.0316 N   0  0  0  0  0  0  0  0  0  0  0  0
    1.4659   -4.2121    1.4991 B   0  0  0  0  0  0  0  0  0  0  0  0
   -0.7980    1.0642    4.1946 N   0  0  0  0  0  0  0  0  0  0  0  0
   -2.6662   -2.4021   -1.1753 B   0  0  0  0  0  0  0  0  0  0  0  0
   -1.0744   -4.4843    0.9912 N   0  0  0  0  0  0  0  0  0  0  0  0
   -2.5037    0.4914   -2.1091 B   0  0  0  0  0  0  0  0  0  0  0  0
    2.3527   -3.8873    0.4531 N   0  0  0  0  0  0  0  0  0  0  0  0
    3.9123   -0.2024    0.7259 B   0  0  0  0  0  0  0  0  0  0  0  0
    1.9285    1.9570   -2.4651 N   0  0  0  0  0  0  0  0  0  0  0  0
    1.0012    2.2544   -4.6225 B   0  0  0  0  0  0  0  0  0  0  0  0
   -4.1860    0.8290   -0.3475 N   0  0  0  0  0  0  0  0  0  0  0  0
   -1.3389    2.4537   -3.1149 B   0  0  0  0  0  0  0  0  0  0  0  0
   -2.3596    1.9326   -2.3058 N   0  0  0  0  0  0  0  0  0  0  0  0
    3.0731   -2.6455    0.6011 B   0  0  0  0  0  0  0  0  0  0  0  0
    2.3352   -3.6737   -0.9709 N   0  0  0  0  0  0  0  0  0  0  0  0
    2.2179    0.5458    2.8084 B   0  0  0  0  0  0  0  0  0  0  0  0
   -2.0264    0.6119    3.6015 N   0  0  0  0  0  0  0  0  0  0  0  0
   -1.1017   -4.1838   -0.4410 B   0  0  0  0  0  0  0  0  0  0  0  0
   -3.2181    0.0417   -0.9586 N   0  0  0  0  0  0  0  0  0  0  0  0
    3.4478    1.2586   -0.5141 B   0  0  0  0  0  0  0  0  0  0  0  0
    2.5821    1.6330    1.9365 N   0  0  0  0  0  0  0  0  0  0  0  0
    1.4721   -1.5550   -3.5156 B   0  0  0  0  0  0  0  0  0  0  0  0
   -2.1026    1.7542    2.7608 N   0  0  0  0  0  0  0  0  0  0  0  0
    2.0408    0.7119   -3.2115 B   0  0  0  0  0  0  0  0  0  0  0  0
   -2.7209   -1.3417    2.3206 N   0  0  0  0  0  0  0  0  0  0  0  0
    0.6586   -0.5389   -4.4869 B   0  0  0  0  0  0  0  0  0  0  0  0
   -0.1687   -3.7594   -1.3565 N   0  0  0  0  0  0  0  0  0  0  0  0
    0.4856   -2.1056    3.4338 B   0  0  0  0  0  0  0  0  0  0  0  0
   -0.5873   -1.2050    3.8245 N   0  0  0  0  0  0  0  0  0  0  0  0
   -3.2244   -1.4514    1.0003 B   0  0  0  0  0  0  0  0  0  0  0  0
    2.6713   -0.8555    2.6211 N   0  0  0  0  0  0  0  0  0  0  0  0
    1.8786    3.3393   -0.1064 B   0  0  0  0  0  0  0  0  0  0  0  0
    2.8769   -2.3318   -0.7936 N   0  0  0  0  0  0  0  0  0  0  0  0
  1  2  1  0  0  0  0
  2  3  2  0  0  0  0
  2  4  1  0  0  0  0
  4  5  1  0  0  0  0
  5  6  1  0  0  0  0
  6  7  2  0  0  0  0
  6  8  1  0  0  0  0
  8  9  1  0  0  0  0
  8 10  1  0  0  0  0
 10 11  1  0  0  0  0
 10 12  1  0  0  0  0
 12 13  1  0  0  0  0
 13 14  1  0  0  0  0
 14 15  1  0  0  0  0
 13 16  1  0  0  0  0
 15 16  1  0  0  0  0
 16 17  1  0  0  0  0
 17 18  1  0  0  0  0
 18 19  1  0  0  0  0
 18 20  2  0  0  0  0
  8 21  1  0  0  0  0
 16 21  1  0  0  0  0
 21 22  1  0  0  0  0
 22 23  1  0  0  0  0
 23 24  1  0  0  0  0
 24 25  2  0  0  0  0
 24 26  1  0  0  0  0
 26 27  4  0  0  0  0
 27 28  4  0  0  0  0
 28 29  4  0  0  0  0
 29 30  4  0  0  0  0
 26 31  4  0  0  0  0
 30 31  4  0  0  0  0
 22 32  1  0  0  0  0
 32 33  1  0  0  0  0
 32 34  1  0  0  0  0
 34 35  1  0  0  0  0
 35 36  1  0  0  0  0
 36 37  1  0  0  0  0
 37 38  2  0  0  0  0
 37 39  1  0  0  0  0
 39 40  1  0  0  0  0
 39 41  1  0  0  0  0
 41 42  1  0  0  0  0
 42 43  4  0  0  0  0
 43 44  2  0  0  0  0
 43 45  1  0  0  0  0
 45 46  4  0  0  0  0
 46 47  4  0  0  0  0
 47 48  4  0  0  0  0
 48 49  4  0  0  0  0
 45 50  4  0  0  0  0
 49 50  4  0  0  0  0
 41 51  1  0  0  0  0
 51 52  4  0  0  0  0
 52 53  4  0  0  0  0
 53 54  4  0  0  0  0
 54 55  4  0  0  0  0
 51 56  4  0  0  0  0
 55 56  4  0  0  0  0
 35 57  1  0  0  0  0
 57 58  1  0  0  0  0
  5 59  1  0  0  0  0
 57 59  2  0  0  0  0
 32 60  1  0  0  0  0
 59 60  1  0  0  0  0
 60 61  1  0  0  0  0
 60 62  1  0  0  0  0
  1 63  1  0  0  0  0
  1 64  1  0  0  0  0
  1 65  1  0  0  0  0
  5 66  1  0  0  0  0
  9 67  1  0  0  0  0
  9 68  1  0  0  0  0
  9 69  1  0  0  0  0
 10 70  1  0  0  0  0
 11 71  1  0  0  0  0
 12 72  1  0  0  0  0
 12 73  1  0  0  0  0
 13 74  1  0  0  0  0
 15 75  1  0  0  0  0
 15 76  1  0  0  0  0
 19 77  1  0  0  0  0
 19 78  1  0  0  0  0
 19 79  1  0  0  0  0
 21 80  1  0  0  0  0
 22 81  1  0  0  0  0
 27 82  1  0  0  0  0
 28 83  1  0  0  0  0
 29 84  1  0  0  0  0
 30 85  1  0  0  0  0
 31 86  1  0  0  0  0
 33 87  1  0  0  0  0
 34 88  1  0  0  0  0
 34 89  1  0  0  0  0
 35 90  1  0  0  0  0
 39 91  1  0  0  0  0
 40 92  1  0  0  0  0
 41 93  1  0  0  0  0
 42 94  1  0  0  0  0
 46 95  1  0  0  0  0
 47 96  1  0  0  0  0
 48 97  1  0  0  0  0
 49 98  1  0  0  0  0
 50 99  1  0  0  0  0
 52100  1  0  0  0  0
 53101  1  0  0  0  0
 54102  1  0  0  0  0
 55103  1  0  0  0  0
 56104  1  0  0  0  0
 58105  1  0  0  0  0
 58106  1  0  0  0  0
 58107  1  0  0  0  0
 61108  1  0  0  0  0
 61109  1  0  0  0  0
 61110  1  0  0  0  0
 62111  1  0  0  0  0
 62112  1  0  0  0  0
 62113  1  0  0  0  0
121122  1  0  0  0  0
124125  1  0  0  0  0
120127  1  0  0  0  0
123128  1  0  0  0  0
127130  1  0  0  0  0
129132  1  0  0  0  0
131133  1  0  0  0  0
121134  1  0  0  0  0
124135  1  0  0  0  0
120136  1  0  0  0  0
133137  1  0  0  0  0
135138  1  0  0  0  0
119140  1  0  0  0  0
127141  1  0  0  0  0
136141  1  0  0  0  0
140143  1  0  0  0  0
117144  1  0  0  0  0
139144  1  0  0  0  0
141146  1  0  0  0  0
128147  1  0  0  0  0
134148  1  0  0  0  0
147148  1  0  0  0  0
129149  1  0  0  0  0
136149  1  0  0  0  0
132150  1  0  0  0  0
118151  1  0  0  0  0
125152  1  0  0  0  0
129152  1  0  0  0  0
120153  1  0  0  0  0
138153  1  0  0  0  0
152153  1  0  0  0  0
118154  1  0  0  0  0
151154  1  0  0  0  0
130155  1  0  0  0  0
137155  1  0  0  0  0
143156  1  0  0  0  0
145156  1  0  0  0  0
148156  1  0  0  0  0
140157  1  0  0  0  0
151157  1  0  0  0  0
134158  1  0  0  0  0
154159  1  0  0  0  0
114160  1  0  0  0  0
115160  1  0  0  0  0
139160  1  0  0  0  0
116161  1  0  0  0  0
150161  1  0  0  0  0
122162  1  0  0  0  0
126162  1  0  0  0  0
150162  1  0  0  0  0
124163  1  0  0  0  0
135163  1  0  0  0  0
122164  1  0  0  0  0
132164  1  0  0  0  0
125165  1  0  0  0  0
158165  1  0  0  0  0
164165  1  0  0  0  0
114166  1  0  0  0  0
159166  1  0  0  0  0
123167  1  0  0  0  0
159167  1  0  0  0  0
133168  1  0  0  0  0
142169  1  0  0  0  0
155169  1  0  0  0  0
143170  1  0  0  0  0
157170  1  0  0  0  0
145171  1  0  0  0  0
158171  1  0  0  0  0
163171  1  0  0  0  0
115172  1  0  0  0  0
116172  1  0  0  0  0
139172  1  0  0  0  0
115173  1  0  0  0  0
146173  1  0  0  0  0
168173  1  0  0  0  0
117174  1  0  0  0  0
128174  1  0  0  0  0
130175  1  0  0  0  0
138175  1  0  0  0  0
169175  1  0  0  0  0
117176  1  0  0  0  0
126176  1  0  0  0  0
161176  1  0  0  0  0
119177  1  0  0  0  0
142177  1  0  0  0  0
121178  1  0  0  0  0
126178  1  0  0  0  0
174178  1  0  0  0  0
123179  1  0  0  0  0
147179  1  0  0  0  0
170179  1  0  0  0  0
118180  1  0  0  0  0
131180  1  0  0  0  0
137181  1  0  0  0  0
142181  1  0  0  0  0
180181  1  0  0  0  0
119182  1  0  0  0  0
145182  1  0  0  0  0
177182  1  0  0  0  0
114183  1  0  0  0  0
131183  1  0  0  0  0
168183  1  0  0  0  0
116184  1  0  0  0  0
146184  1  0  0  0  0
149184  1  0  0  0  0
144185  1  0  0  0  0
166185  1  0  0  0  0
167185  1  0  0  0  0
M  END
