 xtb: 6.7.1pre (5071a88)
          08312622263D

185227  0     0  0            999 V2000
   -4.6574    1.9258    8.6611 C   0  0  0  0  0  0  0  0  0  0  0  0
   -3.2894    1.4279    9.0333 C   0  0  0  0  0  0  0  0  0  0  0  0
   -2.4781    0.9747    8.2741 O   0  0  0  0  0  0  0  0  0  0  0  0
   -3.0916    1.5243   10.3584 O   0  0  0  0  0  0  0  0  0  0  0  0
   -1.7802    1.2049   10.8081 C   0  0  0  0  0  0  0  0  0  0  0  0
   -0.8699    2.4173   10.6181 C   0  0  0  0  0  0  0  0  0  0  0  0
   -1.3023    3.4072   10.0849 O   0  0  0  0  0  0  0  0  0  0  0  0
    0.6082    2.2953   11.0214 C   0  0  0  0  0  0  0  0  0  0  0  0
    1.1283    0.8502   11.0738 C   0  0  0  0  0  0  0  0  0  0  0  0
    1.3333    2.9764    9.8035 C   0  0  0  0  0  0  0  0  0  0  0  0
    1.4316    2.0169    8.7774 O   0  0  0  0  0  0  0  0  0  0  0  0
    2.6949    3.5632   10.1692 C   0  0  0  0  0  0  0  0  0  0  0  0
    2.4481    4.7328   11.1029 C   0  0  0  0  0  0  0  0  0  0  0  0
    1.5231    5.6919   10.5808 O   0  0  0  0  0  0  0  0  0  0  0  0
    0.5821    5.4721   11.6327 C   0  0  0  0  0  0  0  0  0  0  0  0
    1.4994    4.4212   12.2753 C   0  0  0  0  0  0  0  0  0  0  0  0
    2.0435    4.7495   13.5620 O   0  0  0  0  0  0  0  0  0  0  0  0
    2.5683    5.9550   13.8464 C   0  0  0  0  0  0  0  0  0  0  0  0
    3.0412    5.9853   15.2777 C   0  0  0  0  0  0  0  0  0  0  0  0
    2.6504    6.8778   13.0857 O   0  0  0  0  0  0  0  0  0  0  0  0
    1.0281    2.9446   12.3851 C   0  0  0  0  0  0  0  0  0  0  0  0
    0.2528    2.8403   13.7639 C   0  0  0  0  0  0  0  0  0  0  0  0
    1.3423    2.4622   14.6369 O   0  0  0  0  0  0  0  0  0  0  0  0
    1.5144    3.0414   15.8180 C   0  0  0  0  0  0  0  0  0  0  0  0
    0.7696    3.8772   16.2891 O   0  0  0  0  0  0  0  0  0  0  0  0
    2.7084    2.5308   16.5281 C   0  0  0  0  0  0  0  0  0  0  0  0
    3.0423    3.1095   17.7510 C   0  0  0  0  0  0  0  0  0  0  0  0
    4.1305    2.6438   18.4630 C   0  0  0  0  0  0  0  0  0  0  0  0
    4.8850    1.5950   17.9612 C   0  0  0  0  0  0  0  0  0  0  0  0
    4.5523    1.0124   16.7479 C   0  0  0  0  0  0  0  0  0  0  0  0
    3.4674    1.4756   16.0276 C   0  0  0  0  0  0  0  0  0  0  0  0
   -1.0142    2.0347   14.2901 C   0  0  0  0  0  0  0  0  0  0  0  0
   -1.5703    2.8567   15.3029 O   0  0  0  0  0  0  0  0  0  0  0  0
   -0.6772    0.6745   14.9397 C   0  0  0  0  0  0  0  0  0  0  0  0
   -0.7338   -0.5689   14.0446 C   0  0  0  0  0  0  0  0  0  0  0  0
   -1.5259   -1.5957   14.6901 O   0  0  0  0  0  0  0  0  0  0  0  0
   -0.9438   -2.2205   15.6876 C   0  0  0  0  0  0  0  0  0  0  0  0
    0.1289   -1.9526   16.1767 O   0  0  0  0  0  0  0  0  0  0  0  0
   -1.7740   -3.3790   16.2330 C   0  0  0  0  0  0  0  0  0  0  0  0
   -1.1602   -3.8574   17.3967 O   0  0  0  0  0  0  0  0  0  0  0  0
   -1.8602   -4.4742   15.1264 C   0  0  0  0  0  0  0  0  0  0  0  0
   -0.6097   -5.1947   15.0508 N   0  0  0  0  0  0  0  0  0  0  0  0
    0.4413   -4.7133   14.3430 C   0  0  0  0  0  0  0  0  0  0  0  0
    0.3669   -3.6911   13.6837 O   0  0  0  0  0  0  0  0  0  0  0  0
    1.6724   -5.5467   14.4087 C   0  0  0  0  0  0  0  0  0  0  0  0
    1.6187   -6.9289   14.5667 C   0  0  0  0  0  0  0  0  0  0  0  0
    2.7889   -7.6656   14.6024 C   0  0  0  0  0  0  0  0  0  0  0  0
    4.0153   -7.0317   14.4851 C   0  0  0  0  0  0  0  0  0  0  0  0
    4.0732   -5.6580   14.3148 C   0  0  0  0  0  0  0  0  0  0  0  0
    2.9059   -4.9184   14.2696 C   0  0  0  0  0  0  0  0  0  0  0  0
   -2.9868   -5.4472   15.3510 C   0  0  0  0  0  0  0  0  0  0  0  0
   -3.1749   -6.0445   16.5912 C   0  0  0  0  0  0  0  0  0  0  0  0
   -4.1968   -6.9600   16.7731 C   0  0  0  0  0  0  0  0  0  0  0  0
   -5.0319   -7.2904   15.7191 C   0  0  0  0  0  0  0  0  0  0  0  0
   -4.8443   -6.7022   14.4797 C   0  0  0  0  0  0  0  0  0  0  0  0
   -3.8254   -5.7841   14.2966 C   0  0  0  0  0  0  0  0  0  0  0  0
   -1.2309   -0.3649   12.6375 C   0  0  0  0  0  0  0  0  0  0  0  0
   -1.0344   -1.5711   11.7726 C   0  0  0  0  0  0  0  0  0  0  0  0
   -1.7239    0.8158   12.2497 C   0  0  0  0  0  0  0  0  0  0  0  0
   -2.1641    1.8297   13.2800 C   0  0  0  0  0  0  0  0  0  0  0  0
   -2.6132    3.1993   12.7677 C   0  0  0  0  0  0  0  0  0  0  0  0
   -3.3908    1.2171   13.9904 C   0  0  0  0  0  0  0  0  0  0  0  0
   -4.7620    2.9569    8.9885 H   0  0  0  0  0  0  0  0  0  0  0  0
   -4.7870    1.8587    7.5858 H   0  0  0  0  0  0  0  0  0  0  0  0
   -5.4116    1.3268    9.1663 H   0  0  0  0  0  0  0  0  0  0  0  0
   -1.3872    0.4186   10.1522 H   0  0  0  0  0  0  0  0  0  0  0  0
    2.2101    0.8723   10.9617 H   0  0  0  0  0  0  0  0  0  0  0  0
    0.8865    0.3838   12.0189 H   0  0  0  0  0  0  0  0  0  0  0  0
    0.7416    0.2609   10.2518 H   0  0  0  0  0  0  0  0  0  0  0  0
    0.7246    3.8231    9.4713 H   0  0  0  0  0  0  0  0  0  0  0  0
    1.2257    2.4127    7.9300 H   0  0  0  0  0  0  0  0  0  0  0  0
    3.3510    2.8299   10.6390 H   0  0  0  0  0  0  0  0  0  0  0  0
    3.1766    3.9232    9.2588 H   0  0  0  0  0  0  0  0  0  0  0  0
    3.3869    5.2104   11.4001 H   0  0  0  0  0  0  0  0  0  0  0  0
   -0.3683    5.0965   11.2505 H   0  0  0  0  0  0  0  0  0  0  0  0
    0.4176    6.3720   12.2267 H   0  0  0  0  0  0  0  0  0  0  0  0
    3.7079    5.1486   15.4714 H   0  0  0  0  0  0  0  0  0  0  0  0
    2.1824    5.8943   15.9404 H   0  0  0  0  0  0  0  0  0  0  0  0
    3.5514    6.9268   15.4612 H   0  0  0  0  0  0  0  0  0  0  0  0
    1.9598    2.4138   12.6204 H   0  0  0  0  0  0  0  0  0  0  0  0
   -0.0242    3.8751   14.0084 H   0  0  0  0  0  0  0  0  0  0  0  0
    2.4313    3.9178   18.1228 H   0  0  0  0  0  0  0  0  0  0  0  0
    4.3874    3.0929   19.4104 H   0  0  0  0  0  0  0  0  0  0  0  0
    5.7331    1.2270   18.5198 H   0  0  0  0  0  0  0  0  0  0  0  0
    5.1395    0.1906   16.3665 H   0  0  0  0  0  0  0  0  0  0  0  0
    3.1983    1.0214   15.0872 H   0  0  0  0  0  0  0  0  0  0  0  0
   -0.8704    3.2581   15.8474 H   0  0  0  0  0  0  0  0  0  0  0  0
    0.2911    0.7034   15.4393 H   0  0  0  0  0  0  0  0  0  0  0  0
   -1.4261    0.5533   15.7271 H   0  0  0  0  0  0  0  0  0  0  0  0
    0.2741   -1.0020   13.9618 H   0  0  0  0  0  0  0  0  0  0  0  0
   -2.7885   -3.0272   16.4621 H   0  0  0  0  0  0  0  0  0  0  0  0
   -0.3132   -3.3800   17.4703 H   0  0  0  0  0  0  0  0  0  0  0  0
   -1.9947   -3.9617   14.1677 H   0  0  0  0  0  0  0  0  0  0  0  0
   -0.4617   -5.9044   15.7506 H   0  0  0  0  0  0  0  0  0  0  0  0
    0.6662   -7.4354   14.6306 H   0  0  0  0  0  0  0  0  0  0  0  0
    2.7438   -8.7386   14.7196 H   0  0  0  0  0  0  0  0  0  0  0  0
    4.9257   -7.6121   14.5185 H   0  0  0  0  0  0  0  0  0  0  0  0
    5.0288   -5.1654   14.2130 H   0  0  0  0  0  0  0  0  0  0  0  0
    2.9265   -3.8479   14.1299 H   0  0  0  0  0  0  0  0  0  0  0  0
   -2.5294   -5.7762   17.4138 H   0  0  0  0  0  0  0  0  0  0  0  0
   -4.3421   -7.4172   17.7409 H   0  0  0  0  0  0  0  0  0  0  0  0
   -5.8294   -8.0046   15.8634 H   0  0  0  0  0  0  0  0  0  0  0  0
   -5.4914   -6.9577   13.6539 H   0  0  0  0  0  0  0  0  0  0  0  0
   -3.6765   -5.3252   13.3296 H   0  0  0  0  0  0  0  0  0  0  0  0
   -1.5245   -2.4112   12.2621 H   0  0  0  0  0  0  0  0  0  0  0  0
   -1.4639   -1.4537   10.7840 H   0  0  0  0  0  0  0  0  0  0  0  0
    0.0153   -1.8406   11.6829 H   0  0  0  0  0  0  0  0  0  0  0  0
   -3.0634    3.7337   13.6002 H   0  0  0  0  0  0  0  0  0  0  0  0
   -3.3494    3.0968   11.9788 H   0  0  0  0  0  0  0  0  0  0  0  0
   -1.7835    3.7957   12.4090 H   0  0  0  0  0  0  0  0  0  0  0  0
   -4.2321    1.2359   13.3019 H   0  0  0  0  0  0  0  0  0  0  0  0
   -3.6385    1.8064   14.8680 H   0  0  0  0  0  0  0  0  0  0  0  0
   -3.2170    0.1875   14.2821 H   0  0  0  0  0  0  0  0  0  0  0  0
    3.4605   -1.4545    1.6367 B   0  0  0  0  0  0  0  0  0  0  0  0
    3.4564    1.1303    0.9507 N   0  0  0  0  0  0  0  0  0  0  0  0
    2.5317    2.3655   -1.2450 B   0  0  0  0  0  0  0  0  0  0  0  0
    2.2769   -0.6369   -2.7168 N   0  0  0  0  0  0  0  0  0  0  0  0
    0.6951   -3.5571    2.7217 B   0  0  0  0  0  0  0  0  0  0  0  0
   -2.9374   -2.6491    1.7459 N   0  0  0  0  0  0  0  0  0  0  0  0
   -1.0309    4.0920    1.8660 B   0  0  0  0  0  0  0  0  0  0  0  0
   -0.6408    0.0262   -3.9150 N   0  0  0  0  0  0  0  0  0  0  0  0
   -0.4937    1.4539   -4.0630 B   0  0  0  0  0  0  0  0  0  0  0  0
    1.1948   -3.7821   -1.7235 N   0  0  0  0  0  0  0  0  0  0  0  0
   -3.8473    2.2189   -0.4495 B   0  0  0  0  0  0  0  0  0  0  0  0
   -2.7787    2.7727   -1.1721 N   0  0  0  0  0  0  0  0  0  0  0  0
    1.3810    0.8257   -4.8701 B   0  0  0  0  0  0  0  0  0  0  0  0
   -0.2254    3.3712    2.8655 N   0  0  0  0  0  0  0  0  0  0  0  0
    0.8795   -2.8733   -2.7953 B   0  0  0  0  0  0  0  0  0  0  0  0
   -0.4962    3.7735   -0.9801 N   0  0  0  0  0  0  0  0  0  0  0  0
   -0.7939    2.1880    3.3154 B   0  0  0  0  0  0  0  0  0  0  0  0
    1.6691   -1.2740    3.5237 N   0  0  0  0  0  0  0  0  0  0  0  0
   -0.2590    3.4775   -2.3509 B   0  0  0  0  0  0  0  0  0  0  0  0
    1.3238    0.0692    3.8387 N   0  0  0  0  0  0  0  0  0  0  0  0
   -1.6149   -0.5511   -3.0528 B   0  0  0  0  0  0  0  0  0  0  0  0
   -3.8310    1.7854    0.8753 N   0  0  0  0  0  0  0  0  0  0  0  0
    0.3425    4.4994    1.2110 B   0  0  0  0  0  0  0  0  0  0  0  0
    0.0597   -0.0119    4.4813 N   0  0  0  0  0  0  0  0  0  0  0  0
   -2.7034    2.2341    1.6414 B   0  0  0  0  0  0  0  0  0  0  0  0
    3.7654   -0.1309   -0.7575 N   0  0  0  0  0  0  0  0  0  0  0  0
   -2.2556   -3.6333    1.0409 B   0  0  0  0  0  0  0  0  0  0  0  0
    1.0640    3.7353    2.2587 N   0  0  0  0  0  0  0  0  0  0  0  0
   -1.8160   -0.7736    3.2558 B   0  0  0  0  0  0  0  0  0  0  0  0
   -2.4455   -3.5945   -0.4178 N   0  0  0  0  0  0  0  0  0  0  0  0
    3.0072   -1.0706   -1.4923 B   0  0  0  0  0  0  0  0  0  0  0  0
   -3.1627   -1.2440   -0.3454 N   0  0  0  0  0  0  0  0  0  0  0  0
    2.0387    2.9233    1.5806 B   0  0  0  0  0  0  0  0  0  0  0  0
   -0.5246   -2.8935   -2.4085 N   0  0  0  0  0  0  0  0  0  0  0  0
   -1.6899   -2.1044   -2.4608 B   0  0  0  0  0  0  0  0  0  0  0  0
    0.5898    3.9698   -0.0850 N   0  0  0  0  0  0  0  0  0  0  0  0
    1.0755    2.9665   -3.1603 B   0  0  0  0  0  0  0  0  0  0  0  0
    0.0773   -4.3555    1.7430 N   0  0  0  0  0  0  0  0  0  0  0  0
   -1.7858    3.4599   -0.3716 B   0  0  0  0  0  0  0  0  0  0  0  0
   -2.0094    3.4259    1.0688 N   0  0  0  0  0  0  0  0  0  0  0  0
    1.4647   -4.2085    1.5145 B   0  0  0  0  0  0  0  0  0  0  0  0
   -0.7786    1.0657    4.2174 N   0  0  0  0  0  0  0  0  0  0  0  0
   -2.6763   -2.3932   -1.1396 B   0  0  0  0  0  0  0  0  0  0  0  0
   -1.0777   -4.4802    1.0174 N   0  0  0  0  0  0  0  0  0  0  0  0
   -2.5148    0.5006   -2.0718 B   0  0  0  0  0  0  0  0  0  0  0  0
    2.3472   -3.8849    0.4643 N   0  0  0  0  0  0  0  0  0  0  0  0
    3.9102   -0.2021    0.7336 B   0  0  0  0  0  0  0  0  0  0  0  0
    1.9154    1.9620   -2.4473 N   0  0  0  0  0  0  0  0  0  0  0  0
    0.9792    2.2622   -4.6004 B   0  0  0  0  0  0  0  0  0  0  0  0
   -4.1893    0.8385   -0.3024 N   0  0  0  0  0  0  0  0  0  0  0  0
   -1.3533    2.4625   -3.0816 B   0  0  0  0  0  0  0  0  0  0  0  0
   -2.3709    1.9420   -2.2683 N   0  0  0  0  0  0  0  0  0  0  0  0
    3.0694   -2.6439    0.6099 B   0  0  0  0  0  0  0  0  0  0  0  0
    2.3242   -3.6709   -0.9597 N   0  0  0  0  0  0  0  0  0  0  0  0
    2.2269    0.5458    2.8252 B   0  0  0  0  0  0  0  0  0  0  0  0
   -2.0090    0.6157    3.6323 N   0  0  0  0  0  0  0  0  0  0  0  0
   -1.1108   -4.1772   -0.4141 B   0  0  0  0  0  0  0  0  0  0  0  0
   -3.2241    0.0507   -0.9183 N   0  0  0  0  0  0  0  0  0  0  0  0
    3.4417    1.2602   -0.5030 B   0  0  0  0  0  0  0  0  0  0  0  0
    2.5877    1.6333    1.9520 N   0  0  0  0  0  0  0  0  0  0  0  0
    1.4512   -1.5484   -3.4987 B   0  0  0  0  0  0  0  0  0  0  0  0
   -2.0930    1.7596    2.7970 N   0  0  0  0  0  0  0  0  0  0  0  0
    2.0233    0.7176   -3.1953 B   0  0  0  0  0  0  0  0  0  0  0  0
   -2.7151   -1.3369    2.3581 N   0  0  0  0  0  0  0  0  0  0  0  0
    0.6345   -0.5308   -4.4658 B   0  0  0  0  0  0  0  0  0  0  0  0
   -0.1819   -3.7544   -1.3347 N   0  0  0  0  0  0  0  0  0  0  0  0
    0.4953   -2.1029    3.4570 B   0  0  0  0  0  0  0  0  0  0  0  0
   -0.5731   -1.2013    3.8511 N   0  0  0  0  0  0  0  0  0  0  0  0
   -3.2218   -1.4435    1.0397 B   0  0  0  0  0  0  0  0  0  0  0  0
    2.6784   -0.8561    2.6345 N   0  0  0  0  0  0  0  0  0  0  0  0
    1.8767    3.3420   -0.0866 B   0  0  0  0  0  0  0  0  0  0  0  0
    2.8684   -2.3296   -0.7840 N   0  0  0  0  0  0  0  0  0  0  0  0
  1  2  1  0  0  0  0
  2  3  2  0  0  0  0
  2  4  1  0  0  0  0
  4  5  1  0  0  0  0
  5  6  1  0  0  0  0
  6  7  2  0  0  0  0
  6  8  1  0  0  0  0
  8  9  1  0  0  0  0
  8 10  1  0  0  0  0
 10 11  1  0  0  0  0
 10 12  1  0  0  0  0
 12 13  1  0  0  0  0
 13 14  1  0  0  0  0
 14 15  1  0  0  0  0
 13 16  1  0  0  0  0
 15 16  1  0  0  0  0
 16 17  1  0  0  0  0
 17 18  1  0  0  0  0
 18 19  1  0  0  0  0
 18 20  2  0  0  0  0
  8 21  1  0  0  0  0
 16 21  1  0  0  0  0
 21 22  1  0  0  0  0
 22 23  1  0  0  0  0
 23 24  1  0  0  0  0
 24 25  2  0  0  0  0
 24 26  1  0  0  0  0
 26 27  4  0  0  0  0
 27 28  4  0  0  0  0
 28 29  4  0  0  0  0
 29 30  4  0  0  0  0
 26 31  4  0  0  0  0
 30 31  4  0  0  0  0
 22 32  1  0  0  0  0
 32 33  1  0  0  0  0
 32 34  1  0  0  0  0
 34 35  1  0  0  0  0
 35 36  1  0  0  0  0
 36 37  1  0  0  0  0
 37 38  2  0  0  0  0
 37 39  1  0  0  0  0
 39 40  1  0  0  0  0
 39 41  1  0  0  0  0
 41 42  1  0  0  0  0
 42 43  4  0  0  0  0
 43 44  2  0  0  0  0
 43 45  1  0  0  0  0
 45 46  4  0  0  0  0
 46 47  4  0  0  0  0
 47 48  4  0  0  0  0
 48 49  4  0  0  0  0
 45 50  4  0  0  0  0
 49 50  4  0  0  0  0
 41 51  1  0  0  0  0
 51 52  4  0  0  0  0
 52 53  4  0  0  0  0
 53 54  4  0  0  0  0
 54 55  4  0  0  0  0
 51 56  4  0  0  0  0
 55 56  4  0  0  0  0
 35 57  1  0  0  0  0
 57 58  1  0  0  0  0
  5 59  1  0  0  0  0
 57 59  2  0  0  0  0
 32 60  1  0  0  0  0
 59 60  1  0  0  0  0
 60 61  1  0  0  0  0
 60 62  1  0  0  0  0
  1 63  1  0  0  0  0
  1 64  1  0  0  0  0
  1 65  1  0  0  0  0
  5 66  1  0  0  0  0
  9 67  1  0  0  0  0
  9 68  1  0  0  0  0
  9 69  1  0  0  0  0
 10 70  1  0  0  0  0
 11 71  1  0  0  0  0
 12 72  1  0  0  0  0
 12 73  1  0  0  0  0
 13 74  1  0  0  0  0
 15 75  1  0  0  0  0
 15 76  1  0  0  0  0
 19 77  1  0  0  0  0
 19 78  1  0  0  0  0
 19 79  1  0  0  0  0
 21 80  1  0  0  0  0
 22 81  1  0  0  0  0
 27 82  1  0  0  0  0
 28 83  1  0  0  0  0
 29 84  1  0  0  0  0
 30 85  1  0  0  0  0
 31 86  1  0  0  0  0
 33 87  1  0  0  0  0
 34 88  1  0  0  0  0
 34 89  1  0  0  0  0
 35 90  1  0  0  0  0
 39 91  1  0  0  0  0
 40 92  1  0  0  0  0
 41 93  1  0  0  0  0
 42 94  1  0  0  0  0
 46 95  1  0  0  0  0
 47 96  1  0  0  0  0
 48 97  1  0  0  0  0
 49 98  1  0  0  0  0
 50 99  1  0  0  0  0
 52100  1  0  0  0  0
 53101  1  0  0  0  0
 54102  1  0  0  0  0
 55103  1  0  0  0  0
 56104  1  0  0  0  0
 58105  1  0  0  0  0
 58106  1  0  0  0  0
 58107  1  0  0  0  0
 61108  1  0  0  0  0
 61109  1  0  0  0  0
 61110  1  0  0  0  0
 62111  1  0  0  0  0
 62112  1  0  0  0  0
 62113  1  0  0  0  0
121122  1  0  0  0  0
124125  1  0  0  0  0
120127  1  0  0  0  0
123128  1  0  0  0  0
127130  1  0  0  0  0
129132  1  0  0  0  0
131133  1  0  0  0  0
121134  1  0  0  0  0
124135  1  0  0  0  0
120136  1  0  0  0  0
133137  1  0  0  0  0
135138  1  0  0  0  0
119140  1  0  0  0  0
127141  1  0  0  0  0
136141  1  0  0  0  0
140143  1  0  0  0  0
117144  1  0  0  0  0
139144  1  0  0  0  0
141146  1  0  0  0  0
128147  1  0  0  0  0
134148  1  0  0  0  0
147148  1  0  0  0  0
129149  1  0  0  0  0
136149  1  0  0  0  0
132150  1  0  0  0  0
118151  1  0  0  0  0
125152  1  0  0  0  0
129152  1  0  0  0  0
120153  1  0  0  0  0
138153  1  0  0  0  0
152153  1  0  0  0  0
118154  1  0  0  0  0
151154  1  0  0  0  0
130155  1  0  0  0  0
137155  1  0  0  0  0
143156  1  0  0  0  0
145156  1  0  0  0  0
148156  1  0  0  0  0
140157  1  0  0  0  0
151157  1  0  0  0  0
134158  1  0  0  0  0
154159  1  0  0  0  0
114160  1  0  0  0  0
115160  1  0  0  0  0
139160  1  0  0  0  0
116161  1  0  0  0  0
150161  1  0  0  0  0
122162  1  0  0  0  0
126162  1  0  0  0  0
150162  1  0  0  0  0
124163  1  0  0  0  0
135163  1  0  0  0  0
122164  1  0  0  0  0
132164  1  0  0  0  0
125165  1  0  0  0  0
158165  1  0  0  0  0
164165  1  0  0  0  0
114166  1  0  0  0  0
159166  1  0  0  0  0
123167  1  0  0  0  0
159167  1  0  0  0  0
133168  1  0  0  0  0
142169  1  0  0  0  0
155169  1  0  0  0  0
143170  1  0  0  0  0
157170  1  0  0  0  0
145171  1  0  0  0  0
158171  1  0  0  0  0
163171  1  0  0  0  0
115172  1  0  0  0  0
116172  1  0  0  0  0
139172  1  0  0  0  0
115173  1  0  0  0  0
146173  1  0  0  0  0
168173  1  0  0  0  0
117174  1  0  0  0  0
128174  1  0  0  0  0
130175  1  0  0  0  0
138175  1  0  0  0  0
169175  1  0  0  0  0
117176  1  0  0  0  0
126176  1  0  0  0  0
161176  1  0  0  0  0
119177  1  0  0  0  0
142177  1  0  0  0  0
121178  1  0  0  0  0
126178  1  0  0  0  0
174178  1  0  0  0  0
123179  1  0  0  0  0
147179  1  0  0  0  0
170179  1  0  0  0  0
118180  1  0  0  0  0
131180  1  0  0  0  0
137181  1  0  0  0  0
142181  1  0  0  0  0
180181  1  0  0  0  0
119182  1  0  0  0  0
145182  1  0  0  0  0
177182  1  0  0  0  0
114183  1  0  0  0  0
131183  1  0  0  0  0
168183  1  0  0  0  0
116184  1  0  0  0  0
146184  1  0  0  0  0
149184  1  0  0  0  0
144185  1  0  0  0  0
166185  1  0  0  0  0
167185  1  0  0  0  0
M  END
