 xtb: 6.7.1pre (5071a88)
          08312618303D

185170  0     0  0            999 V2000
   -1.8890   -4.7881   -4.9287 C   0  0  0  0  0  0  0  0  0  0  0  0
   -1.5055   -3.3719   -4.6295 C   0  0  0  0  0  0  0  0  0  0  0  0
   -1.2649   -2.5249   -5.4778 O   0  0  0  0  0  0  0  0  0  0  0  0
   -1.4424   -3.1819   -3.2846 O   0  0  0  0  0  0  0  0  0  0  0  0
   -1.2035   -1.8334   -2.8937 C   0  0  0  0  0  0  0  0  0  0  0  0
   -2.4191   -0.8927   -3.0456 C   0  0  0  0  0  0  0  0  0  0  0  0
   -3.4954   -1.3532   -3.4509 O   0  0  0  0  0  0  0  0  0  0  0  0
   -2.3142    0.6079   -2.6565 C   0  0  0  0  0  0  0  0  0  0  0  0
   -0.8598    1.1517   -2.5966 C   0  0  0  0  0  0  0  0  0  0  0  0
   -2.9763    1.3213   -3.9048 C   0  0  0  0  0  0  0  0  0  0  0  0
   -2.0044    1.5401   -4.9343 O   0  0  0  0  0  0  0  0  0  0  0  0
   -3.6205    2.6535   -3.5686 C   0  0  0  0  0  0  0  0  0  0  0  0
   -4.7665    2.4199   -2.6124 C   0  0  0  0  0  0  0  0  0  0  0  0
   -5.7019    1.4384   -3.1212 O   0  0  0  0  0  0  0  0  0  0  0  0
   -5.5683    0.6285   -1.9289 C   0  0  0  0  0  0  0  0  0  0  0  0
   -4.4740    1.5609   -1.3543 C   0  0  0  0  0  0  0  0  0  0  0  0
   -4.7517    2.2282   -0.0789 O   0  0  0  0  0  0  0  0  0  0  0  0
   -5.9627    2.8091    0.1517 C   0  0  0  0  0  0  0  0  0  0  0  0
   -5.9918    3.3797    1.5374 C   0  0  0  0  0  0  0  0  0  0  0  0
   -6.9002    2.8724   -0.6264 O   0  0  0  0  0  0  0  0  0  0  0  0
   -2.9823    0.9900   -1.2574 C   0  0  0  0  0  0  0  0  0  0  0  0
   -2.8611    0.1859    0.1402 C   0  0  0  0  0  0  0  0  0  0  0  0
   -2.4236    1.2581    1.0682 O   0  0  0  0  0  0  0  0  0  0  0  0
   -3.0127    1.3747    2.2811 C   0  0  0  0  0  0  0  0  0  0  0  0
   -3.8413    0.6010    2.7332 O   0  0  0  0  0  0  0  0  0  0  0  0
   -2.5091    2.5715    3.0034 C   0  0  0  0  0  0  0  0  0  0  0  0
   -3.0999    2.8988    4.2314 C   0  0  0  0  0  0  0  0  0  0  0  0
   -2.6670    4.0188    4.9433 C   0  0  0  0  0  0  0  0  0  0  0  0
   -1.6410    4.8139    4.4345 C   0  0  0  0  0  0  0  0  0  0  0  0
   -1.0450    4.4913    3.2156 C   0  0  0  0  0  0  0  0  0  0  0  0
   -1.4759    3.3726    2.4990 C   0  0  0  0  0  0  0  0  0  0  0  0
   -2.1046   -1.1513    0.6186 C   0  0  0  0  0  0  0  0  0  0  0  0
   -2.9605   -1.7192    1.6659 O   0  0  0  0  0  0  0  0  0  0  0  0
   -0.7585   -0.9599    1.3597 C   0  0  0  0  0  0  0  0  0  0  0  0
    0.4730   -0.8157    0.4663 C   0  0  0  0  0  0  0  0  0  0  0  0
    1.5874   -1.4963    1.0689 O   0  0  0  0  0  0  0  0  0  0  0  0
    2.2082   -0.8203    2.0717 C   0  0  0  0  0  0  0  0  0  0  0  0
    1.8390    0.2485    2.5512 O   0  0  0  0  0  0  0  0  0  0  0  0
    3.4247   -1.5818    2.5928 C   0  0  0  0  0  0  0  0  0  0  0  0
    3.9527   -0.9170    3.7609 O   0  0  0  0  0  0  0  0  0  0  0  0
    4.5108   -1.7232    1.4939 C   0  0  0  0  0  0  0  0  0  0  0  0
    5.3311   -0.5203    1.3613 N   0  0  0  0  0  0  0  0  0  0  0  0
    4.9030    0.5715    0.6426 C   0  0  0  0  0  0  0  0  0  0  0  0
    3.8533    0.5823    0.0092 O   0  0  0  0  0  0  0  0  0  0  0  0
    5.7639    1.7832    0.7030 C   0  0  0  0  0  0  0  0  0  0  0  0
    7.1466    1.7002    0.9130 C   0  0  0  0  0  0  0  0  0  0  0  0
    7.9153    2.8654    0.9625 C   0  0  0  0  0  0  0  0  0  0  0  0
    7.3097    4.1110    0.7963 C   0  0  0  0  0  0  0  0  0  0  0  0
    5.9360    4.1970    0.5722 C   0  0  0  0  0  0  0  0  0  0  0  0
    5.1639    3.0354    0.5210 C   0  0  0  0  0  0  0  0  0  0  0  0
    5.4407   -2.9129    1.7079 C   0  0  0  0  0  0  0  0  0  0  0  0
    5.9915   -3.2214    2.9617 C   0  0  0  0  0  0  0  0  0  0  0  0
    6.8580   -4.3065    3.1133 C   0  0  0  0  0  0  0  0  0  0  0  0
    7.1955   -5.0916    2.0138 C   0  0  0  0  0  0  0  0  0  0  0  0
    6.6717   -4.7901    0.7596 C   0  0  0  0  0  0  0  0  0  0  0  0
    5.8050   -3.7063    0.6062 C   0  0  0  0  0  0  0  0  0  0  0  0
    0.3136   -1.3266   -0.9589 C   0  0  0  0  0  0  0  0  0  0  0  0
    1.5465   -1.0799   -1.8071 C   0  0  0  0  0  0  0  0  0  0  0  0
   -0.8665   -1.8264   -1.4213 C   0  0  0  0  0  0  0  0  0  0  0  0
   -1.9445   -2.2952   -0.4236 C   0  0  0  0  0  0  0  0  0  0  0  0
   -3.3535   -2.7260   -0.9130 C   0  0  0  0  0  0  0  0  0  0  0  0
   -1.3837   -3.6211    0.1967 C   0  0  0  0  0  0  0  0  0  0  0  0
   -2.8458   -5.0210   -4.4543 H   0  0  0  0  0  0  0  0  0  0  0  0
   -2.0004   -4.9128   -6.0095 H   0  0  0  0  0  0  0  0  0  0  0  0
   -1.1085   -5.4658   -4.5744 H   0  0  0  0  0  0  0  0  0  0  0  0
   -0.4066   -1.4253   -3.5172 H   0  0  0  0  0  0  0  0  0  0  0  0
   -0.8362    2.2393   -2.7411 H   0  0  0  0  0  0  0  0  0  0  0  0
   -0.4106    0.9990   -1.6162 H   0  0  0  0  0  0  0  0  0  0  0  0
   -0.2075    0.7169   -3.3586 H   0  0  0  0  0  0  0  0  0  0  0  0
   -3.7403    0.6892   -4.3689 H   0  0  0  0  0  0  0  0  0  0  0  0
   -2.4935    1.6837   -5.7657 H   0  0  0  0  0  0  0  0  0  0  0  0
   -2.8894    3.3492   -3.1408 H   0  0  0  0  0  0  0  0  0  0  0  0
   -3.9834    3.1351   -4.4852 H   0  0  0  0  0  0  0  0  0  0  0  0
   -5.2793    3.3690   -2.4198 H   0  0  0  0  0  0  0  0  0  0  0  0
   -5.2715   -0.3900   -2.1708 H   0  0  0  0  0  0  0  0  0  0  0  0
   -6.5103    0.5693   -1.3768 H   0  0  0  0  0  0  0  0  0  0  0  0
   -5.1522    4.0657    1.6755 H   0  0  0  0  0  0  0  0  0  0  0  0
   -5.9579    2.5717    2.2715 H   0  0  0  0  0  0  0  0  0  0  0  0
   -6.9193    3.9426    1.6774 H   0  0  0  0  0  0  0  0  0  0  0  0
   -2.4453    1.9279   -1.0293 H   0  0  0  0  0  0  0  0  0  0  0  0
   -3.9103   -0.0294    0.3876 H   0  0  0  0  0  0  0  0  0  0  0  0
   -3.8991    2.2830    4.6401 H   0  0  0  0  0  0  0  0  0  0  0  0
   -3.1270    4.2684    5.8965 H   0  0  0  0  0  0  0  0  0  0  0  0
   -1.3011    5.6838    4.9918 H   0  0  0  0  0  0  0  0  0  0  0  0
   -0.2394    5.1089    2.8254 H   0  0  0  0  0  0  0  0  0  0  0  0
   -0.9903    3.1364    1.5556 H   0  0  0  0  0  0  0  0  0  0  0  0
   -3.2713   -1.0049    2.2611 H   0  0  0  0  0  0  0  0  0  0  0  0
   -0.7956   -0.1223    2.0640 H   0  0  0  0  0  0  0  0  0  0  0  0
   -0.6042   -1.8088    2.0433 H   0  0  0  0  0  0  0  0  0  0  0  0
    0.7055    0.2555    0.3789 H   0  0  0  0  0  0  0  0  0  0  0  0
    3.0627   -2.5624    2.9240 H   0  0  0  0  0  0  0  0  0  0  0  0
    3.5877   -0.0082    3.7369 H   0  0  0  0  0  0  0  0  0  0  0  0
    4.0066   -1.8813    0.5326 H   0  0  0  0  0  0  0  0  0  0  0  0
    6.0571   -0.4016    2.0560 H   0  0  0  0  0  0  0  0  0  0  0  0
    7.6442    0.7396    1.0126 H   0  0  0  0  0  0  0  0  0  0  0  0
    8.9893    2.8021    1.1216 H   0  0  0  0  0  0  0  0  0  0  0  0
    7.9112    5.0164    0.8324 H   0  0  0  0  0  0  0  0  0  0  0  0
    5.4665    5.1677    0.4337 H   0  0  0  0  0  0  0  0  0  0  0  0
    4.0931    3.1080    0.3418 H   0  0  0  0  0  0  0  0  0  0  0  0
    5.7560   -2.6218    3.8385 H   0  0  0  0  0  0  0  0  0  0  0  0
    7.2710   -4.5371    4.0922 H   0  0  0  0  0  0  0  0  0  0  0  0
    7.8700   -5.9353    2.1337 H   0  0  0  0  0  0  0  0  0  0  0  0
    6.9400   -5.3968   -0.1016 H   0  0  0  0  0  0  0  0  0  0  0  0
    5.4166   -3.4819   -0.3857 H   0  0  0  0  0  0  0  0  0  0  0  0
    2.4191   -1.5538   -1.3460 H   0  0  0  0  0  0  0  0  0  0  0  0
    1.4812   -1.5070   -2.8095 H   0  0  0  0  0  0  0  0  0  0  0  0
    1.7509   -0.0094   -1.8992 H   0  0  0  0  0  0  0  0  0  0  0  0
   -3.9038   -3.2496   -0.1203 H   0  0  0  0  0  0  0  0  0  0  0  0
   -3.3149   -3.4226   -1.7546 H   0  0  0  0  0  0  0  0  0  0  0  0
   -3.9825   -1.8792   -1.1800 H   0  0  0  0  0  0  0  0  0  0  0  0
   -1.3566   -4.4168   -0.5591 H   0  0  0  0  0  0  0  0  0  0  0  0
   -2.0088   -3.9803    1.0222 H   0  0  0  0  0  0  0  0  0  0  0  0
   -0.3642   -3.5306    0.5840 H   0  0  0  0  0  0  0  0  0  0  0  0
    2.1012    0.0000    3.3450 B   0  0  0  0  0  0  0  0  0  0  0  0
   -2.1012    0.0000    3.3450 B   0  0  0  0  0  0  0  0  0  0  0  0
    0.0000    2.1012    3.3450 B   0  0  0  0  0  0  0  0  0  0  0  0
    0.0000   -2.1012    3.3450 B   0  0  0  0  0  0  0  0  0  0  0  0
    3.3450    2.1012    0.0000 B   0  0  0  0  0  0  0  0  0  0  0  0
    3.3450   -2.1012    0.0000 B   0  0  0  0  0  0  0  0  0  0  0  0
    3.3450    0.0000    2.1012 B   0  0  0  0  0  0  0  0  0  0  0  0
    3.3450    0.0000   -2.1012 B   0  0  0  0  0  0  0  0  0  0  0  0
   -3.3450    2.1012    0.0000 B   0  0  0  0  0  0  0  0  0  0  0  0
   -3.3450   -2.1012    0.0000 B   0  0  0  0  0  0  0  0  0  0  0  0
   -3.3450    0.0000    2.1012 B   0  0  0  0  0  0  0  0  0  0  0  0
   -3.3450    0.0000   -2.1012 B   0  0  0  0  0  0  0  0  0  0  0  0
    2.1012    0.0000   -3.3450 B   0  0  0  0  0  0  0  0  0  0  0  0
   -2.1012    0.0000   -3.3450 B   0  0  0  0  0  0  0  0  0  0  0  0
    0.0000    2.1012   -3.3450 B   0  0  0  0  0  0  0  0  0  0  0  0
    0.0000   -2.1012   -3.3450 B   0  0  0  0  0  0  0  0  0  0  0  0
    0.0000    3.3450    2.1012 B   0  0  0  0  0  0  0  0  0  0  0  0
    0.0000    3.3450   -2.1012 B   0  0  0  0  0  0  0  0  0  0  0  0
    0.0000   -3.3450    2.1012 B   0  0  0  0  0  0  0  0  0  0  0  0
    0.0000   -3.3450   -2.1012 B   0  0  0  0  0  0  0  0  0  0  0  0
    2.1012    3.3450    0.0000 B   0  0  0  0  0  0  0  0  0  0  0  0
   -2.1012    3.3450    0.0000 B   0  0  0  0  0  0  0  0  0  0  0  0
    2.1012   -3.3450    0.0000 B   0  0  0  0  0  0  0  0  0  0  0  0
   -2.1012   -3.3450    0.0000 B   0  0  0  0  0  0  0  0  0  0  0  0
    1.4800    1.4800    3.5800 B   0  0  0  0  0  0  0  0  0  0  0  0
   -1.4800    1.4800    3.5800 B   0  0  0  0  0  0  0  0  0  0  0  0
    1.4800   -1.4800    3.5800 B   0  0  0  0  0  0  0  0  0  0  0  0
   -1.4800   -1.4800    3.5800 B   0  0  0  0  0  0  0  0  0  0  0  0
    3.5800    1.4800    1.4800 B   0  0  0  0  0  0  0  0  0  0  0  0
    3.5800   -1.4800    1.4800 B   0  0  0  0  0  0  0  0  0  0  0  0
    3.5800    1.4800   -1.4800 B   0  0  0  0  0  0  0  0  0  0  0  0
    3.5800   -1.4800   -1.4800 B   0  0  0  0  0  0  0  0  0  0  0  0
   -3.5800    1.4800    1.4800 B   0  0  0  0  0  0  0  0  0  0  0  0
   -3.5800   -1.4800    1.4800 B   0  0  0  0  0  0  0  0  0  0  0  0
   -3.5800    1.4800   -1.4800 B   0  0  0  0  0  0  0  0  0  0  0  0
   -3.5800   -1.4800   -1.4800 B   0  0  0  0  0  0  0  0  0  0  0  0
    2.1012    0.0000    3.9200 N   0  0  0  0  0  0  0  0  0  0  0  0
   -2.1012    0.0000    3.9200 N   0  0  0  0  0  0  0  0  0  0  0  0
    0.0000    2.1012    3.9200 N   0  0  0  0  0  0  0  0  0  0  0  0
    0.0000   -2.1012    3.9200 N   0  0  0  0  0  0  0  0  0  0  0  0
    3.9200    2.1012    0.0000 N   0  0  0  0  0  0  0  0  0  0  0  0
    3.9200   -2.1012    0.0000 N   0  0  0  0  0  0  0  0  0  0  0  0
    3.9200    0.0000    2.1012 N   0  0  0  0  0  0  0  0  0  0  0  0
    3.9200    0.0000   -2.1012 N   0  0  0  0  0  0  0  0  0  0  0  0
   -3.9200    2.1012    0.0000 N   0  0  0  0  0  0  0  0  0  0  0  0
   -3.9200   -2.1012    0.0000 N   0  0  0  0  0  0  0  0  0  0  0  0
   -3.9200    0.0000    2.1012 N   0  0  0  0  0  0  0  0  0  0  0  0
   -3.9200    0.0000   -2.1012 N   0  0  0  0  0  0  0  0  0  0  0  0
    2.1012    0.0000   -3.9200 N   0  0  0  0  0  0  0  0  0  0  0  0
   -2.1012    0.0000   -3.9200 N   0  0  0  0  0  0  0  0  0  0  0  0
    0.0000    2.1012   -3.9200 N   0  0  0  0  0  0  0  0  0  0  0  0
    0.0000   -2.1012   -3.9200 N   0  0  0  0  0  0  0  0  0  0  0  0
    0.0000    3.9200    2.1012 N   0  0  0  0  0  0  0  0  0  0  0  0
    0.0000    3.9200   -2.1012 N   0  0  0  0  0  0  0  0  0  0  0  0
    0.0000   -3.9200    2.1012 N   0  0  0  0  0  0  0  0  0  0  0  0
    0.0000   -3.9200   -2.1012 N   0  0  0  0  0  0  0  0  0  0  0  0
    2.1012    3.9200    0.0000 N   0  0  0  0  0  0  0  0  0  0  0  0
   -2.1012    3.9200    0.0000 N   0  0  0  0  0  0  0  0  0  0  0  0
    2.1012   -3.9200    0.0000 N   0  0  0  0  0  0  0  0  0  0  0  0
   -2.1012   -3.9200    0.0000 N   0  0  0  0  0  0  0  0  0  0  0  0
    1.4800    1.4800    4.2200 N   0  0  0  0  0  0  0  0  0  0  0  0
   -1.4800    1.4800    4.2200 N   0  0  0  0  0  0  0  0  0  0  0  0
    1.4800   -1.4800    4.2200 N   0  0  0  0  0  0  0  0  0  0  0  0
   -1.4800   -1.4800    4.2200 N   0  0  0  0  0  0  0  0  0  0  0  0
    4.2200    1.4800    1.4800 N   0  0  0  0  0  0  0  0  0  0  0  0
    4.2200   -1.4800    1.4800 N   0  0  0  0  0  0  0  0  0  0  0  0
    4.2200    1.4800   -1.4800 N   0  0  0  0  0  0  0  0  0  0  0  0
    4.2200   -1.4800   -1.4800 N   0  0  0  0  0  0  0  0  0  0  0  0
   -4.2200    1.4800    1.4800 N   0  0  0  0  0  0  0  0  0  0  0  0
   -4.2200   -1.4800    1.4800 N   0  0  0  0  0  0  0  0  0  0  0  0
   -4.2200    1.4800   -1.4800 N   0  0  0  0  0  0  0  0  0  0  0  0
   -4.2200   -1.4800   -1.4800 N   0  0  0  0  0  0  0  0  0  0  0  0
  1  2  1  0  0  0  0
  2  3  2  0  0  0  0
  2  4  1  0  0  0  0
  4  5  1  0  0  0  0
  5  6  1  0  0  0  0
  6  7  1  0  0  0  0
  8  9  1  0  0  0  0
  8 10  1  0  0  0  0
 10 11  1  0  0  0  0
 10 12  1  0  0  0  0
 12 13  1  0  0  0  0
 13 14  1  0  0  0  0
 14 15  1  0  0  0  0
 17 18  1  0  0  0  0
 18 19  1  0  0  0  0
 18 20  4  0  0  0  0
  8 21  1  0  0  0  0
 21 22  1  0  0  0  0
 22 23  1  0  0  0  0
 23 24  1  0  0  0  0
 24 25  1  0  0  0  0
 24 26  1  0  0  0  0
 26 27  1  0  0  0  0
 27 28  4  0  0  0  0
 28 29  4  0  0  0  0
 29 30  4  0  0  0  0
 26 31  1  0  0  0  0
 30 31  4  0  0  0  0
 22 32  1  0  0  0  0
 32 33  1  0  0  0  0
 32 34  1  0  0  0  0
 34 35  1  0  0  0  0
 35 36  1  0  0  0  0
 36 37  1  0  0  0  0
 37 38  1  0  0  0  0
 37 39  1  0  0  0  0
 39 40  1  0  0  0  0
 42 43  1  0  0  0  0
 43 44  1  0  0  0  0
 43 45  1  0  0  0  0
 45 46  4  0  0  0  0
 46 47  4  0  0  0  0
 47 48  4  0  0  0  0
 48 49  4  0  0  0  0
 45 50  1  0  0  0  0
 49 50  4  0  0  0  0
 41 51  1  0  0  0  0
 51 52  4  0  0  0  0
 52 53  4  0  0  0  0
 53 54  4  0  0  0  0
 54 55  4  0  0  0  0
 51 56  4  0  0  0  0
 55 56  4  0  0  0  0
 35 57  1  0  0  0  0
 57 58  1  0  0  0  0
  5 59  1  0  0  0  0
 57 59  1  0  0  0  0
 32 60  1  0  0  0  0
 59 60  1  0  0  0  0
 60 61  1  0  0  0  0
  1 63  1  0  0  0  0
  1 64  1  0  0  0  0
  1 65  1  0  0  0  0
  9 67  1  0  0  0  0
  9 68  1  0  0  0  0
  9 69  1  0  0  0  0
 10 70  1  0  0  0  0
 11 71  1  0  0  0  0
 12 72  1  0  0  0  0
 12 73  1  0  0  0  0
 13 74  1  0  0  0  0
 15 75  1  0  0  0  0
 15 76  1  0  0  0  0
 19 77  1  0  0  0  0
 19 78  1  0  0  0  0
 19 79  1  0  0  0  0
 21 80  1  0  0  0  0
 22 81  1  0  0  0  0
 27 82  1  0  0  0  0
 28 83  1  0  0  0  0
 29 84  1  0  0  0  0
 30 85  1  0  0  0  0
 31 86  1  0  0  0  0
 34 88  1  0  0  0  0
 34 89  1  0  0  0  0
 35 90  1  0  0  0  0
 39 91  1  0  0  0  0
 40 92  1  0  0  0  0
 42 94  1  0  0  0  0
 46 95  1  0  0  0  0
 47 96  1  0  0  0  0
 48 97  1  0  0  0  0
 49 98  1  0  0  0  0
 50 99  1  0  0  0  0
 52100  1  0  0  0  0
 53101  1  0  0  0  0
 54102  1  0  0  0  0
 55103  1  0  0  0  0
 56104  1  0  0  0  0
 58105  1  0  0  0  0
 58106  1  0  0  0  0
 58107  1  0  0  0  0
 61108  1  0  0  0  0
 61109  1  0  0  0  0
 62111  1  0  0  0  0
 62113  1  0  0  0  0
 38114  1  0  0  0  0
 61123  1  0  0  0  0
 25124  1  0  0  0  0
  8125  1  0  0  0  0
  6127  1  0  0  0  0
  8127  1  0  0  0  0
  5129  1  0  0  0  0
 60137  1  0  0  0  0
 62137  1  0  0  0  0
 37143  1  0  0  0  0
 39143  1  0  0  0  0
 23146  1  0  0  0  0
 24146  1  0  0  0  0
 33147  1  0  0  0  0
 21148  2  0  0  0  0
 61149  1  0  0  0  0
114150  3  0  0  0  0
115151  3  0  0  0  0
116152  3  0  0  0  0
117153  3  0  0  0  0
118154  3  0  0  0  0
 93155  1  0  0  0  0
119155  3  0  0  0  0
120156  3  0  0  0  0
121157  3  0  0  0  0
 17158  1  0  0  0  0
122158  2  0  0  0  0
 61159  1  0  0  0  0
123159  3  0  0  0  0
 25160  1  0  0  0  0
124160  2  0  0  0  0
125161  3  0  0  0  0
126162  3  0  0  0  0
  6163  1  0  0  0  0
  8163  1  0  0  0  0
127163  2  0  0  0  0
128164  3  0  0  0  0
129165  3  0  0  0  0
130166  3  0  0  0  0
131167  3  0  0  0  0
132168  3  0  0  0  0
133169  3  0  0  0  0
134170  3  0  0  0  0
135171  3  0  0  0  0
136172  3  0  0  0  0
 62173  1  0  0  0  0
137173  2  0  0  0  0
138174  3  0  0  0  0
139175  3  0  0  0  0
140176  3  0  0  0  0
141177  3  0  0  0  0
 43178  1  0  0  0  0
142178  3  0  0  0  0
 41179  3  0  0  0  0
143179  1  0  0  0  0
144180  3  0  0  0  0
145181  3  0  0  0  0
 24182  1  0  0  0  0
146182  3  0  0  0  0
147183  2  0  0  0  0
 16184  3  0  0  0  0
148184  1  0  0  0  0
110185  1  0  0  0  0
149185  2  0  0  0  0
M  END
