 xtb: 6.7.1pre (5071a88)
          08312618343D

141133  0     0  0            999 V2000
   -5.0957    2.5337   -2.5926 C   0  0  0  0  0  0  0  0  0  0  0  0
   -5.8935    1.4727   -2.0883 O   0  0  0  0  0  0  0  0  0  0  0  0
   -5.3171    0.6369   -1.1693 C   0  0  0  0  0  0  0  0  0  0  0  0
   -3.9509    0.5853   -0.8815 C   0  0  0  0  0  0  0  0  0  0  0  0
   -3.4474   -0.3022    0.0917 C   0  0  0  0  0  0  0  0  0  0  0  0
   -1.9517   -0.3961    0.4007 C   0  0  0  0  0  0  0  0  0  0  0  0
   -1.2378    0.9646    0.4915 C   0  0  0  0  0  0  0  0  0  0  0  0
   -1.7895    1.9821    1.2974 C   0  0  0  0  0  0  0  0  0  0  0  0
   -1.1375    3.1940    1.3658 C   0  0  0  0  0  0  0  0  0  0  0  0
    0.0319    3.4264    0.6863 C   0  0  0  0  0  0  0  0  0  0  0  0
    0.6251    2.4581   -0.0933 C   0  0  0  0  0  0  0  0  0  0  0  0
   -0.0035    1.2032   -0.1913 C   0  0  0  0  0  0  0  0  0  0  0  0
    0.6733    0.0934   -0.9837 C   0  0  0  0  0  0  0  0  0  0  0  0
    1.4550   -0.6807   -0.0723 O   0  0  0  0  0  0  0  0  0  0  0  0
    2.8410   -0.3625   -0.0993 C   0  0  0  0  0  0  0  0  0  0  0  0
    3.4201   -0.7870   -1.3459 O   0  0  0  0  0  0  0  0  0  0  0  0
    4.5912   -1.5721   -1.0470 C   0  0  0  0  0  0  0  0  0  0  0  0
    5.7506   -1.1266   -1.9295 C   0  0  0  0  0  0  0  0  0  0  0  0
    6.9649   -1.2155   -1.1888 O   0  0  0  0  0  0  0  0  0  0  0  0
    6.9726   -0.2735   -0.1142 C   0  0  0  0  0  0  0  0  0  0  0  0
    8.0482   -0.6805    0.8797 C   0  0  0  0  0  0  0  0  0  0  0  0
    5.7150   -0.1560    0.5625 O   0  0  0  0  0  0  0  0  0  0  0  0
    4.9294   -1.3513    0.4194 C   0  0  0  0  0  0  0  0  0  0  0  0
    3.5607   -1.1256    1.0212 C   0  0  0  0  0  0  0  0  0  0  0  0
    3.6361   -0.4022    2.2489 O   0  0  0  0  0  0  0  0  0  0  0  0
   -0.3923   -0.8050   -1.6321 C   0  0  0  0  0  0  0  0  0  0  0  0
    0.1347   -2.1129   -2.1872 C   0  0  0  0  0  0  0  0  0  0  0  0
   -0.1338   -3.1395   -1.2222 O   0  0  0  0  0  0  0  0  0  0  0  0
   -1.0332   -2.7013   -0.3039 C   0  0  0  0  0  0  0  0  0  0  0  0
   -1.5069   -3.3497    0.6088 O   0  0  0  0  0  0  0  0  0  0  0  0
   -1.3190   -1.3046   -0.5939 C   0  0  0  0  0  0  0  0  0  0  0  0
    0.5101    4.6833    0.8884 O   0  0  0  0  0  0  0  0  0  0  0  0
   -0.4886    5.2110    1.7871 C   0  0  0  0  0  0  0  0  0  0  0  0
   -1.5450    4.2749    2.0828 O   0  0  0  0  0  0  0  0  0  0  0  0
   -4.3363   -1.1742    0.7496 C   0  0  0  0  0  0  0  0  0  0  0  0
   -5.6990   -1.1491    0.4589 C   0  0  0  0  0  0  0  0  0  0  0  0
   -6.6587   -1.9496    1.0271 O   0  0  0  0  0  0  0  0  0  0  0  0
   -6.1995   -2.9552    1.9245 C   0  0  0  0  0  0  0  0  0  0  0  0
   -6.1748   -0.2386   -0.4950 C   0  0  0  0  0  0  0  0  0  0  0  0
   -7.5223   -0.2162   -0.7694 O   0  0  0  0  0  0  0  0  0  0  0  0
   -4.2984    2.1506   -3.2376 H   0  0  0  0  0  0  0  0  0  0  0  0
   -4.6880    3.1482   -1.7828 H   0  0  0  0  0  0  0  0  0  0  0  0
   -5.7383    3.1741   -3.2046 H   0  0  0  0  0  0  0  0  0  0  0  0
   -3.2543    1.2301   -1.4078 H   0  0  0  0  0  0  0  0  0  0  0  0
   -1.8334   -0.8321    1.4031 H   0  0  0  0  0  0  0  0  0  0  0  0
   -2.7098    1.8317    1.8543 H   0  0  0  0  0  0  0  0  0  0  0  0
    1.5602    2.6704   -0.6005 H   0  0  0  0  0  0  0  0  0  0  0  0
    1.2917    0.5185   -1.7854 H   0  0  0  0  0  0  0  0  0  0  0  0
    2.9879    0.7177    0.0131 H   0  0  0  0  0  0  0  0  0  0  0  0
    4.3345   -2.6224   -1.2269 H   0  0  0  0  0  0  0  0  0  0  0  0
    5.6184   -0.1070   -2.3122 H   0  0  0  0  0  0  0  0  0  0  0  0
    5.8314   -1.7850   -2.8007 H   0  0  0  0  0  0  0  0  0  0  0  0
    7.2184    0.7145   -0.5195 H   0  0  0  0  0  0  0  0  0  0  0  0
    8.0906    0.0200    1.7194 H   0  0  0  0  0  0  0  0  0  0  0  0
    7.8418   -1.6743    1.2919 H   0  0  0  0  0  0  0  0  0  0  0  0
    9.0289   -0.7277    0.3960 H   0  0  0  0  0  0  0  0  0  0  0  0
    5.4597   -2.1875    0.8875 H   0  0  0  0  0  0  0  0  0  0  0  0
    3.0558   -2.0789    1.2161 H   0  0  0  0  0  0  0  0  0  0  0  0
    4.3754    0.2289    2.1448 H   0  0  0  0  0  0  0  0  0  0  0  0
   -0.9284   -0.2441   -2.4067 H   0  0  0  0  0  0  0  0  0  0  0  0
   -0.3846   -2.3883   -3.1128 H   0  0  0  0  0  0  0  0  0  0  0  0
    1.2069   -2.0899   -2.4033 H   0  0  0  0  0  0  0  0  0  0  0  0
   -0.9299    6.1058    1.3333 H   0  0  0  0  0  0  0  0  0  0  0  0
    0.0003    5.4972    2.7256 H   0  0  0  0  0  0  0  0  0  0  0  0
   -3.9310   -1.8741    1.4760 H   0  0  0  0  0  0  0  0  0  0  0  0
   -5.7402   -2.5091    2.8127 H   0  0  0  0  0  0  0  0  0  0  0  0
   -7.0703   -3.5303    2.2539 H   0  0  0  0  0  0  0  0  0  0  0  0
   -5.5125   -3.6472    1.4262 H   0  0  0  0  0  0  0  0  0  0  0  0
   -7.9089   -0.9018   -0.1930 H   0  0  0  0  0  0  0  0  0  0  0  0
    2.1012    0.0000    3.3450 B   0  0  0  0  0  0  0  0  0  0  0  0
   -2.1012    0.0000    3.3450 B   0  0  0  0  0  0  0  0  0  0  0  0
    0.0000    2.1012    3.3450 B   0  0  0  0  0  0  0  0  0  0  0  0
    0.0000   -2.1012    3.3450 B   0  0  0  0  0  0  0  0  0  0  0  0
    3.3450    2.1012    0.0000 B   0  0  0  0  0  0  0  0  0  0  0  0
    3.3450   -2.1012    0.0000 B   0  0  0  0  0  0  0  0  0  0  0  0
    3.3450    0.0000    2.1012 B   0  0  0  0  0  0  0  0  0  0  0  0
    3.3450    0.0000   -2.1012 B   0  0  0  0  0  0  0  0  0  0  0  0
   -3.3450    2.1012    0.0000 B   0  0  0  0  0  0  0  0  0  0  0  0
   -3.3450   -2.1012    0.0000 B   0  0  0  0  0  0  0  0  0  0  0  0
   -3.3450    0.0000    2.1012 B   0  0  0  0  0  0  0  0  0  0  0  0
   -3.3450    0.0000   -2.1012 B   0  0  0  0  0  0  0  0  0  0  0  0
    2.1012    0.0000   -3.3450 B   0  0  0  0  0  0  0  0  0  0  0  0
   -2.1012    0.0000   -3.3450 B   0  0  0  0  0  0  0  0  0  0  0  0
    0.0000    2.1012   -3.3450 B   0  0  0  0  0  0  0  0  0  0  0  0
    0.0000   -2.1012   -3.3450 B   0  0  0  0  0  0  0  0  0  0  0  0
    0.0000    3.3450    2.1012 B   0  0  0  0  0  0  0  0  0  0  0  0
    0.0000    3.3450   -2.1012 B   0  0  0  0  0  0  0  0  0  0  0  0
    0.0000   -3.3450    2.1012 B   0  0  0  0  0  0  0  0  0  0  0  0
    0.0000   -3.3450   -2.1012 B   0  0  0  0  0  0  0  0  0  0  0  0
    2.1012    3.3450    0.0000 B   0  0  0  0  0  0  0  0  0  0  0  0
   -2.1012    3.3450    0.0000 B   0  0  0  0  0  0  0  0  0  0  0  0
    2.1012   -3.3450    0.0000 B   0  0  0  0  0  0  0  0  0  0  0  0
   -2.1012   -3.3450    0.0000 B   0  0  0  0  0  0  0  0  0  0  0  0
    1.4800    1.4800    3.5800 B   0  0  0  0  0  0  0  0  0  0  0  0
   -1.4800    1.4800    3.5800 B   0  0  0  0  0  0  0  0  0  0  0  0
    1.4800   -1.4800    3.5800 B   0  0  0  0  0  0  0  0  0  0  0  0
   -1.4800   -1.4800    3.5800 B   0  0  0  0  0  0  0  0  0  0  0  0
    3.5800    1.4800    1.4800 B   0  0  0  0  0  0  0  0  0  0  0  0
    3.5800   -1.4800    1.4800 B   0  0  0  0  0  0  0  0  0  0  0  0
    3.5800    1.4800   -1.4800 B   0  0  0  0  0  0  0  0  0  0  0  0
    3.5800   -1.4800   -1.4800 B   0  0  0  0  0  0  0  0  0  0  0  0
   -3.5800    1.4800    1.4800 B   0  0  0  0  0  0  0  0  0  0  0  0
   -3.5800   -1.4800    1.4800 B   0  0  0  0  0  0  0  0  0  0  0  0
   -3.5800    1.4800   -1.4800 B   0  0  0  0  0  0  0  0  0  0  0  0
   -3.5800   -1.4800   -1.4800 B   0  0  0  0  0  0  0  0  0  0  0  0
    2.1012    0.0000    3.9200 N   0  0  0  0  0  0  0  0  0  0  0  0
   -2.1012    0.0000    3.9200 N   0  0  0  0  0  0  0  0  0  0  0  0
    0.0000    2.1012    3.9200 N   0  0  0  0  0  0  0  0  0  0  0  0
    0.0000   -2.1012    3.9200 N   0  0  0  0  0  0  0  0  0  0  0  0
    3.9200    2.1012    0.0000 N   0  0  0  0  0  0  0  0  0  0  0  0
    3.9200   -2.1012    0.0000 N   0  0  0  0  0  0  0  0  0  0  0  0
    3.9200    0.0000    2.1012 N   0  0  0  0  0  0  0  0  0  0  0  0
    3.9200    0.0000   -2.1012 N   0  0  0  0  0  0  0  0  0  0  0  0
   -3.9200    2.1012    0.0000 N   0  0  0  0  0  0  0  0  0  0  0  0
   -3.9200   -2.1012    0.0000 N   0  0  0  0  0  0  0  0  0  0  0  0
   -3.9200    0.0000    2.1012 N   0  0  0  0  0  0  0  0  0  0  0  0
   -3.9200    0.0000   -2.1012 N   0  0  0  0  0  0  0  0  0  0  0  0
    2.1012    0.0000   -3.9200 N   0  0  0  0  0  0  0  0  0  0  0  0
   -2.1012    0.0000   -3.9200 N   0  0  0  0  0  0  0  0  0  0  0  0
    0.0000    2.1012   -3.9200 N   0  0  0  0  0  0  0  0  0  0  0  0
    0.0000   -2.1012   -3.9200 N   0  0  0  0  0  0  0  0  0  0  0  0
    0.0000    3.9200    2.1012 N   0  0  0  0  0  0  0  0  0  0  0  0
    0.0000    3.9200   -2.1012 N   0  0  0  0  0  0  0  0  0  0  0  0
    0.0000   -3.9200    2.1012 N   0  0  0  0  0  0  0  0  0  0  0  0
    0.0000   -3.9200   -2.1012 N   0  0  0  0  0  0  0  0  0  0  0  0
    2.1012    3.9200    0.0000 N   0  0  0  0  0  0  0  0  0  0  0  0
   -2.1012    3.9200    0.0000 N   0  0  0  0  0  0  0  0  0  0  0  0
    2.1012   -3.9200    0.0000 N   0  0  0  0  0  0  0  0  0  0  0  0
   -2.1012   -3.9200    0.0000 N   0  0  0  0  0  0  0  0  0  0  0  0
    1.4800    1.4800    4.2200 N   0  0  0  0  0  0  0  0  0  0  0  0
   -1.4800    1.4800    4.2200 N   0  0  0  0  0  0  0  0  0  0  0  0
    1.4800   -1.4800    4.2200 N   0  0  0  0  0  0  0  0  0  0  0  0
   -1.4800   -1.4800    4.2200 N   0  0  0  0  0  0  0  0  0  0  0  0
    4.2200    1.4800    1.4800 N   0  0  0  0  0  0  0  0  0  0  0  0
    4.2200   -1.4800    1.4800 N   0  0  0  0  0  0  0  0  0  0  0  0
    4.2200    1.4800   -1.4800 N   0  0  0  0  0  0  0  0  0  0  0  0
    4.2200   -1.4800   -1.4800 N   0  0  0  0  0  0  0  0  0  0  0  0
   -4.2200    1.4800    1.4800 N   0  0  0  0  0  0  0  0  0  0  0  0
   -4.2200   -1.4800    1.4800 N   0  0  0  0  0  0  0  0  0  0  0  0
   -4.2200    1.4800   -1.4800 N   0  0  0  0  0  0  0  0  0  0  0  0
   -4.2200   -1.4800   -1.4800 N   0  0  0  0  0  0  0  0  0  0  0  0
  1  2  1  0  0  0  0
  2  3  1  0  0  0  0
  3  4  1  0  0  0  0
  4  5  1  0  0  0  0
  5  6  1  0  0  0  0
  6  7  1  0  0  0  0
  7  8  1  0  0  0  0
  8  9  1  0  0  0  0
  9 10  1  0  0  0  0
 10 11  4  0  0  0  0
  7 12  4  0  0  0  0
 11 12  1  0  0  0  0
 12 13  1  0  0  0  0
 13 14  1  0  0  0  0
 14 15  1  0  0  0  0
 15 16  1  0  0  0  0
 17 18  1  0  0  0  0
 18 19  1  0  0  0  0
 19 20  1  0  0  0  0
 20 21  1  0  0  0  0
 20 22  1  0  0  0  0
 17 23  1  0  0  0  0
 22 23  1  0  0  0  0
 15 24  1  0  0  0  0
 13 26  1  0  0  0  0
 26 27  1  0  0  0  0
 27 28  1  0  0  0  0
 28 29  1  0  0  0  0
 29 30  1  0  0  0  0
  6 31  1  0  0  0  0
 26 31  1  0  0  0  0
 29 31  1  0  0  0  0
 10 32  1  0  0  0  0
 32 33  1  0  0  0  0
  9 34  1  0  0  0  0
 33 34  1  0  0  0  0
  5 35  1  0  0  0  0
 35 36  1  0  0  0  0
 36 37  1  0  0  0  0
 37 38  1  0  0  0  0
  3 39  4  0  0  0  0
 36 39  4  0  0  0  0
 39 40  1  0  0  0  0
  1 41  1  0  0  0  0
  1 42  1  0  0  0  0
  1 43  1  0  0  0  0
  6 45  1  0  0  0  0
  8 46  1  0  0  0  0
 11 47  1  0  0  0  0
 13 48  1  0  0  0  0
 15 49  1  0  0  0  0
 18 51  1  0  0  0  0
 18 52  1  0  0  0  0
 20 53  1  0  0  0  0
 21 54  1  0  0  0  0
 21 55  1  0  0  0  0
 21 56  1  0  0  0  0
 23 57  1  0  0  0  0
 26 60  1  0  0  0  0
 27 62  1  0  0  0  0
 33 63  1  0  0  0  0
 33 64  1  0  0  0  0
 38 66  1  0  0  0  0
 38 67  1  0  0  0  0
 38 68  1  0  0  0  0
 40 69  1  0  0  0  0
 25 76  1  0  0  0  0
 16 77  1  0  0  0  0
 27 85  1  0  0  0  0
 27 89  1  0  0  0  0
 28 89  1  0  0  0  0
 75 92  1  0  0  0  0
 29 93  1  0  0  0  0
 30 93  1  0  0  0  0
 76 98  1  0  0  0  0
 24 99  1  0  0  0  0
 58 99  1  0  0  0  0
 16101  1  0  0  0  0
  4104  1  0  0  0  0
 44104  1  0  0  0  0
 70106  3  0  0  0  0
 71107  3  0  0  0  0
 72108  3  0  0  0  0
 73109  3  0  0  0  0
 74110  3  0  0  0  0
 23111  1  0  0  0  0
 75111  2  0  0  0  0
 25112  2  0  0  0  0
 59112  1  0  0  0  0
 76112  1  0  0  0  0
 16113  1  0  0  0  0
 77113  2  0  0  0  0
 78114  3  0  0  0  0
 35115  1  0  0  0  0
 79115  3  0  0  0  0
 80116  3  0  0  0  0
  4117  1  0  0  0  0
 81117  3  0  0  0  0
 82118  3  0  0  0  0
 83119  3  0  0  0  0
 84120  3  0  0  0  0
 85121  3  0  0  0  0
 33122  1  0  0  0  0
 86122  3  0  0  0  0
 87123  3  0  0  0  0
 88124  3  0  0  0  0
 28125  1  0  0  0  0
 89125  2  0  0  0  0
 90126  3  0  0  0  0
 91127  3  0  0  0  0
 92128  3  0  0  0  0
 30129  1  0  0  0  0
 93129  2  0  0  0  0
 94130  3  0  0  0  0
 95131  3  0  0  0  0
 96132  3  0  0  0  0
 97133  3  0  0  0  0
 98134  3  0  0  0  0
 23135  1  0  0  0  0
 24135  1  0  0  0  0
 99135  1  0  0  0  0
100136  3  0  0  0  0
 16137  1  0  0  0  0
 17137  2  0  0  0  0
101137  1  0  0  0  0
102138  3  0  0  0  0
 35139  4  0  0  0  0
 65139  1  0  0  0  0
103139  2  0  0  0  0
  3140  1  0  0  0  0
  4140  1  0  0  0  0
104140  2  0  0  0  0
105141  3  0  0  0  0
M  END
