 xtb: 6.7.1pre (5071a88)
          08312622223D

141183  0     0  0            999 V2000
   -5.0957    2.5337    8.3016 C   0  0  0  0  0  0  0  0  0  0  0  0
   -5.8935    1.4727    8.8060 O   0  0  0  0  0  0  0  0  0  0  0  0
   -5.3171    0.6369    9.7250 C   0  0  0  0  0  0  0  0  0  0  0  0
   -3.9509    0.5853   10.0127 C   0  0  0  0  0  0  0  0  0  0  0  0
   -3.4474   -0.3022   10.9860 C   0  0  0  0  0  0  0  0  0  0  0  0
   -1.9517   -0.3961   11.2949 C   0  0  0  0  0  0  0  0  0  0  0  0
   -1.2378    0.9646   11.3858 C   0  0  0  0  0  0  0  0  0  0  0  0
   -1.7895    1.9821   12.1917 C   0  0  0  0  0  0  0  0  0  0  0  0
   -1.1375    3.1940   12.2600 C   0  0  0  0  0  0  0  0  0  0  0  0
    0.0319    3.4264   11.5806 C   0  0  0  0  0  0  0  0  0  0  0  0
    0.6251    2.4581   10.8010 C   0  0  0  0  0  0  0  0  0  0  0  0
   -0.0035    1.2032   10.7030 C   0  0  0  0  0  0  0  0  0  0  0  0
    0.6733    0.0934    9.9105 C   0  0  0  0  0  0  0  0  0  0  0  0
    1.4550   -0.6807   10.8220 O   0  0  0  0  0  0  0  0  0  0  0  0
    2.8410   -0.3625   10.7950 C   0  0  0  0  0  0  0  0  0  0  0  0
    3.4201   -0.7870    9.5484 O   0  0  0  0  0  0  0  0  0  0  0  0
    4.5912   -1.5721    9.8472 C   0  0  0  0  0  0  0  0  0  0  0  0
    5.7506   -1.1266    8.9648 C   0  0  0  0  0  0  0  0  0  0  0  0
    6.9649   -1.2155    9.7054 O   0  0  0  0  0  0  0  0  0  0  0  0
    6.9726   -0.2735   10.7801 C   0  0  0  0  0  0  0  0  0  0  0  0
    8.0482   -0.6805   11.7739 C   0  0  0  0  0  0  0  0  0  0  0  0
    5.7150   -0.1560   11.4568 O   0  0  0  0  0  0  0  0  0  0  0  0
    4.9294   -1.3513   11.3137 C   0  0  0  0  0  0  0  0  0  0  0  0
    3.5607   -1.1256   11.9154 C   0  0  0  0  0  0  0  0  0  0  0  0
    3.6361   -0.4022   13.1432 O   0  0  0  0  0  0  0  0  0  0  0  0
   -0.3923   -0.8050    9.2621 C   0  0  0  0  0  0  0  0  0  0  0  0
    0.1347   -2.1129    8.7071 C   0  0  0  0  0  0  0  0  0  0  0  0
   -0.1338   -3.1395    9.6721 O   0  0  0  0  0  0  0  0  0  0  0  0
   -1.0332   -2.7013   10.5904 C   0  0  0  0  0  0  0  0  0  0  0  0
   -1.5069   -3.3497   11.5030 O   0  0  0  0  0  0  0  0  0  0  0  0
   -1.3190   -1.3046   10.3004 C   0  0  0  0  0  0  0  0  0  0  0  0
    0.5101    4.6833   11.7826 O   0  0  0  0  0  0  0  0  0  0  0  0
   -0.4886    5.2110   12.6814 C   0  0  0  0  0  0  0  0  0  0  0  0
   -1.5450    4.2749   12.9770 O   0  0  0  0  0  0  0  0  0  0  0  0
   -4.3363   -1.1742   11.6439 C   0  0  0  0  0  0  0  0  0  0  0  0
   -5.6990   -1.1491   11.3532 C   0  0  0  0  0  0  0  0  0  0  0  0
   -6.6587   -1.9496   11.9214 O   0  0  0  0  0  0  0  0  0  0  0  0
   -6.1995   -2.9552   12.8188 C   0  0  0  0  0  0  0  0  0  0  0  0
   -6.1748   -0.2386   10.3993 C   0  0  0  0  0  0  0  0  0  0  0  0
   -7.5223   -0.2162   10.1249 O   0  0  0  0  0  0  0  0  0  0  0  0
   -4.2984    2.1506    7.6567 H   0  0  0  0  0  0  0  0  0  0  0  0
   -4.6880    3.1482    9.1115 H   0  0  0  0  0  0  0  0  0  0  0  0
   -5.7383    3.1741    7.6897 H   0  0  0  0  0  0  0  0  0  0  0  0
   -3.2543    1.2301    9.4865 H   0  0  0  0  0  0  0  0  0  0  0  0
   -1.8334   -0.8321   12.2974 H   0  0  0  0  0  0  0  0  0  0  0  0
   -2.7098    1.8317   12.7485 H   0  0  0  0  0  0  0  0  0  0  0  0
    1.5602    2.6704   10.2937 H   0  0  0  0  0  0  0  0  0  0  0  0
    1.2917    0.5185    9.1088 H   0  0  0  0  0  0  0  0  0  0  0  0
    2.9879    0.7177   10.9074 H   0  0  0  0  0  0  0  0  0  0  0  0
    4.3345   -2.6224    9.6674 H   0  0  0  0  0  0  0  0  0  0  0  0
    5.6184   -0.1070    8.5820 H   0  0  0  0  0  0  0  0  0  0  0  0
    5.8314   -1.7850    8.0936 H   0  0  0  0  0  0  0  0  0  0  0  0
    7.2184    0.7145   10.3747 H   0  0  0  0  0  0  0  0  0  0  0  0
    8.0906    0.0200   12.6137 H   0  0  0  0  0  0  0  0  0  0  0  0
    7.8418   -1.6743   12.1862 H   0  0  0  0  0  0  0  0  0  0  0  0
    9.0289   -0.7277   11.2903 H   0  0  0  0  0  0  0  0  0  0  0  0
    5.4597   -2.1875   11.7818 H   0  0  0  0  0  0  0  0  0  0  0  0
    3.0558   -2.0789   12.1104 H   0  0  0  0  0  0  0  0  0  0  0  0
    4.3754    0.2289   13.0391 H   0  0  0  0  0  0  0  0  0  0  0  0
   -0.9284   -0.2441    8.4876 H   0  0  0  0  0  0  0  0  0  0  0  0
   -0.3846   -2.3883    7.7815 H   0  0  0  0  0  0  0  0  0  0  0  0
    1.2069   -2.0899    8.4910 H   0  0  0  0  0  0  0  0  0  0  0  0
   -0.9299    6.1058   12.2275 H   0  0  0  0  0  0  0  0  0  0  0  0
    0.0003    5.4972   13.6199 H   0  0  0  0  0  0  0  0  0  0  0  0
   -3.9310   -1.8741   12.3703 H   0  0  0  0  0  0  0  0  0  0  0  0
   -5.7402   -2.5091   13.7070 H   0  0  0  0  0  0  0  0  0  0  0  0
   -7.0703   -3.5303   13.1481 H   0  0  0  0  0  0  0  0  0  0  0  0
   -5.5125   -3.6472   12.3205 H   0  0  0  0  0  0  0  0  0  0  0  0
   -7.9089   -0.9018   10.7012 H   0  0  0  0  0  0  0  0  0  0  0  0
    3.4592   -1.4546    1.6280 B   0  0  0  0  0  0  0  0  0  0  0  0
    3.4564    1.1299    0.9400 N   0  0  0  0  0  0  0  0  0  0  0  0
    2.5399    2.3625   -1.2610 B   0  0  0  0  0  0  0  0  0  0  0  0
    2.2931   -0.6416   -2.7306 N   0  0  0  0  0  0  0  0  0  0  0  0
    0.6905   -3.5611    2.7027 B   0  0  0  0  0  0  0  0  0  0  0  0
   -2.9397   -2.6548    1.7095 N   0  0  0  0  0  0  0  0  0  0  0  0
   -1.0382    4.0851    1.8312 B   0  0  0  0  0  0  0  0  0  0  0  0
   -0.6193    0.0177   -3.9419 N   0  0  0  0  0  0  0  0  0  0  0  0
   -0.4737    1.4453   -4.0917 B   0  0  0  0  0  0  0  0  0  0  0  0
    1.2096   -3.7868   -1.7394 N   0  0  0  0  0  0  0  0  0  0  0  0
   -3.8445    2.2094   -0.4937 B   0  0  0  0  0  0  0  0  0  0  0  0
   -2.7729    2.7636   -1.2118 N   0  0  0  0  0  0  0  0  0  0  0  0
    1.4057    0.8181   -4.8893 B   0  0  0  0  0  0  0  0  0  0  0  0
   -0.2358    3.3642    2.8335 N   0  0  0  0  0  0  0  0  0  0  0  0
    0.8983   -2.8798   -2.8138 B   0  0  0  0  0  0  0  0  0  0  0  0
   -0.4918    3.7666   -1.0101 N   0  0  0  0  0  0  0  0  0  0  0  0
   -0.8060    2.1823    3.2819 B   0  0  0  0  0  0  0  0  0  0  0  0
    1.6561   -1.2744    3.5036 N   0  0  0  0  0  0  0  0  0  0  0  0
   -0.2485    3.4699   -2.3799 B   0  0  0  0  0  0  0  0  0  0  0  0
    1.3087    0.0689    3.8170 N   0  0  0  0  0  0  0  0  0  0  0  0
   -1.5974   -0.5599   -3.0847 B   0  0  0  0  0  0  0  0  0  0  0  0
   -3.8325    1.7768    0.8316 N   0  0  0  0  0  0  0  0  0  0  0  0
    0.3376    4.4960    1.1839 B   0  0  0  0  0  0  0  0  0  0  0  0
    0.0433   -0.0140    4.4567 N   0  0  0  0  0  0  0  0  0  0  0  0
   -2.7088    2.2268    1.6012 B   0  0  0  0  0  0  0  0  0  0  0  0
    3.7727   -0.1326   -0.7655 N   0  0  0  0  0  0  0  0  0  0  0  0
   -2.2534   -3.6394    1.0085 B   0  0  0  0  0  0  0  0  0  0  0  0
    1.0558    3.7334    2.2357 N   0  0  0  0  0  0  0  0  0  0  0  0
   -1.8256   -0.7775    3.2198 B   0  0  0  0  0  0  0  0  0  0  0  0
   -2.4368   -3.6019   -0.4508 N   0  0  0  0  0  0  0  0  0  0  0  0
    3.0187   -1.0737   -1.5028 B   0  0  0  0  0  0  0  0  0  0  0  0
   -3.1580   -1.2526   -0.3843 N   0  0  0  0  0  0  0  0  0  0  0  0
    2.0347    2.9223    1.5617 B   0  0  0  0  0  0  0  0  0  0  0  0
   -0.5074   -2.9001   -2.4328 N   0  0  0  0  0  0  0  0  0  0  0  0
   -1.6735   -2.1129   -2.4916 B   0  0  0  0  0  0  0  0  0  0  0  0
    0.5901    3.9646   -0.1102 N   0  0  0  0  0  0  0  0  0  0  0  0
    1.0903    2.9596   -3.1825 B   0  0  0  0  0  0  0  0  0  0  0  0
    0.0774   -4.3592    1.7213 N   0  0  0  0  0  0  0  0  0  0  0  0
   -1.7840    3.4524   -0.4082 B   0  0  0  0  0  0  0  0  0  0  0  0
   -2.0135    3.4185    1.0316 N   0  0  0  0  0  0  0  0  0  0  0  0
    1.4659   -4.2121    1.4991 B   0  0  0  0  0  0  0  0  0  0  0  0
   -0.7980    1.0642    4.1946 N   0  0  0  0  0  0  0  0  0  0  0  0
   -2.6662   -2.4021   -1.1753 B   0  0  0  0  0  0  0  0  0  0  0  0
   -1.0744   -4.4843    0.9912 N   0  0  0  0  0  0  0  0  0  0  0  0
   -2.5037    0.4914   -2.1091 B   0  0  0  0  0  0  0  0  0  0  0  0
    2.3527   -3.8873    0.4531 N   0  0  0  0  0  0  0  0  0  0  0  0
    3.9123   -0.2024    0.7259 B   0  0  0  0  0  0  0  0  0  0  0  0
    1.9285    1.9570   -2.4651 N   0  0  0  0  0  0  0  0  0  0  0  0
    1.0012    2.2544   -4.6225 B   0  0  0  0  0  0  0  0  0  0  0  0
   -4.1860    0.8290   -0.3475 N   0  0  0  0  0  0  0  0  0  0  0  0
   -1.3389    2.4537   -3.1149 B   0  0  0  0  0  0  0  0  0  0  0  0
   -2.3596    1.9326   -2.3058 N   0  0  0  0  0  0  0  0  0  0  0  0
    3.0731   -2.6455    0.6011 B   0  0  0  0  0  0  0  0  0  0  0  0
    2.3352   -3.6737   -0.9709 N   0  0  0  0  0  0  0  0  0  0  0  0
    2.2179    0.5458    2.8084 B   0  0  0  0  0  0  0  0  0  0  0  0
   -2.0264    0.6119    3.6015 N   0  0  0  0  0  0  0  0  0  0  0  0
   -1.1017   -4.1838   -0.4410 B   0  0  0  0  0  0  0  0  0  0  0  0
   -3.2181    0.0417   -0.9586 N   0  0  0  0  0  0  0  0  0  0  0  0
    3.4478    1.2586   -0.5141 B   0  0  0  0  0  0  0  0  0  0  0  0
    2.5821    1.6330    1.9365 N   0  0  0  0  0  0  0  0  0  0  0  0
    1.4721   -1.5550   -3.5156 B   0  0  0  0  0  0  0  0  0  0  0  0
   -2.1026    1.7542    2.7608 N   0  0  0  0  0  0  0  0  0  0  0  0
    2.0408    0.7119   -3.2115 B   0  0  0  0  0  0  0  0  0  0  0  0
   -2.7209   -1.3417    2.3206 N   0  0  0  0  0  0  0  0  0  0  0  0
    0.6586   -0.5389   -4.4869 B   0  0  0  0  0  0  0  0  0  0  0  0
   -0.1687   -3.7594   -1.3565 N   0  0  0  0  0  0  0  0  0  0  0  0
    0.4856   -2.1056    3.4338 B   0  0  0  0  0  0  0  0  0  0  0  0
   -0.5873   -1.2050    3.8245 N   0  0  0  0  0  0  0  0  0  0  0  0
   -3.2244   -1.4514    1.0003 B   0  0  0  0  0  0  0  0  0  0  0  0
    2.6713   -0.8555    2.6211 N   0  0  0  0  0  0  0  0  0  0  0  0
    1.8786    3.3393   -0.1064 B   0  0  0  0  0  0  0  0  0  0  0  0
    2.8769   -2.3318   -0.7936 N   0  0  0  0  0  0  0  0  0  0  0  0
  1  2  1  0  0  0  0
  2  3  1  0  0  0  0
  3  4  4  0  0  0  0
  4  5  4  0  0  0  0
  5  6  1  0  0  0  0
  6  7  1  0  0  0  0
  7  8  4  0  0  0  0
  8  9  4  0  0  0  0
  9 10  4  0  0  0  0
 10 11  4  0  0  0  0
  7 12  4  0  0  0  0
 11 12  4  0  0  0  0
 12 13  1  0  0  0  0
 13 14  1  0  0  0  0
 14 15  1  0  0  0  0
 15 16  1  0  0  0  0
 16 17  1  0  0  0  0
 17 18  1  0  0  0  0
 18 19  1  0  0  0  0
 19 20  1  0  0  0  0
 20 21  1  0  0  0  0
 20 22  1  0  0  0  0
 17 23  1  0  0  0  0
 22 23  1  0  0  0  0
 15 24  1  0  0  0  0
 23 24  1  0  0  0  0
 24 25  1  0  0  0  0
 13 26  1  0  0  0  0
 26 27  1  0  0  0  0
 27 28  1  0  0  0  0
 28 29  1  0  0  0  0
 29 30  2  0  0  0  0
  6 31  1  0  0  0  0
 26 31  1  0  0  0  0
 29 31  1  0  0  0  0
 10 32  1  0  0  0  0
 32 33  1  0  0  0  0
  9 34  1  0  0  0  0
 33 34  1  0  0  0  0
  5 35  4  0  0  0  0
 35 36  4  0  0  0  0
 36 37  1  0  0  0  0
 37 38  1  0  0  0  0
  3 39  4  0  0  0  0
 36 39  4  0  0  0  0
 39 40  1  0  0  0  0
  1 41  1  0  0  0  0
  1 42  1  0  0  0  0
  1 43  1  0  0  0  0
  4 44  1  0  0  0  0
  6 45  1  0  0  0  0
  8 46  1  0  0  0  0
 11 47  1  0  0  0  0
 13 48  1  0  0  0  0
 15 49  1  0  0  0  0
 17 50  1  0  0  0  0
 18 51  1  0  0  0  0
 18 52  1  0  0  0  0
 20 53  1  0  0  0  0
 21 54  1  0  0  0  0
 21 55  1  0  0  0  0
 21 56  1  0  0  0  0
 23 57  1  0  0  0  0
 24 58  1  0  0  0  0
 25 59  1  0  0  0  0
 26 60  1  0  0  0  0
 27 61  1  0  0  0  0
 27 62  1  0  0  0  0
 33 63  1  0  0  0  0
 33 64  1  0  0  0  0
 35 65  1  0  0  0  0
 38 66  1  0  0  0  0
 38 67  1  0  0  0  0
 38 68  1  0  0  0  0
 40 69  1  0  0  0  0
 77 78  1  0  0  0  0
 80 81  1  0  0  0  0
 76 83  1  0  0  0  0
 79 84  1  0  0  0  0
 83 86  1  0  0  0  0
 85 88  1  0  0  0  0
 87 89  1  0  0  0  0
 77 90  1  0  0  0  0
 80 91  1  0  0  0  0
 76 92  1  0  0  0  0
 89 93  1  0  0  0  0
 91 94  1  0  0  0  0
 75 96  1  0  0  0  0
 83 97  1  0  0  0  0
 92 97  1  0  0  0  0
 96 99  1  0  0  0  0
 73100  1  0  0  0  0
 95100  1  0  0  0  0
 97102  1  0  0  0  0
 84103  1  0  0  0  0
 90104  1  0  0  0  0
103104  1  0  0  0  0
 85105  1  0  0  0  0
 92105  1  0  0  0  0
 88106  1  0  0  0  0
 74107  1  0  0  0  0
 81108  1  0  0  0  0
 85108  1  0  0  0  0
 76109  1  0  0  0  0
 94109  1  0  0  0  0
108109  1  0  0  0  0
 74110  1  0  0  0  0
107110  1  0  0  0  0
 86111  1  0  0  0  0
 93111  1  0  0  0  0
 99112  1  0  0  0  0
101112  1  0  0  0  0
104112  1  0  0  0  0
 96113  1  0  0  0  0
107113  1  0  0  0  0
 90114  1  0  0  0  0
110115  1  0  0  0  0
 70116  1  0  0  0  0
 71116  1  0  0  0  0
 95116  1  0  0  0  0
 72117  1  0  0  0  0
106117  1  0  0  0  0
 78118  1  0  0  0  0
 82118  1  0  0  0  0
106118  1  0  0  0  0
 80119  1  0  0  0  0
 91119  1  0  0  0  0
 78120  1  0  0  0  0
 88120  1  0  0  0  0
 81121  1  0  0  0  0
114121  1  0  0  0  0
120121  1  0  0  0  0
 70122  1  0  0  0  0
115122  1  0  0  0  0
 79123  1  0  0  0  0
115123  1  0  0  0  0
 89124  1  0  0  0  0
 98125  1  0  0  0  0
111125  1  0  0  0  0
 99126  1  0  0  0  0
113126  1  0  0  0  0
101127  1  0  0  0  0
114127  1  0  0  0  0
119127  1  0  0  0  0
 71128  1  0  0  0  0
 72128  1  0  0  0  0
 95128  1  0  0  0  0
 71129  1  0  0  0  0
102129  1  0  0  0  0
124129  1  0  0  0  0
 73130  1  0  0  0  0
 84130  1  0  0  0  0
 86131  1  0  0  0  0
 94131  1  0  0  0  0
125131  1  0  0  0  0
 73132  1  0  0  0  0
 82132  1  0  0  0  0
117132  1  0  0  0  0
 75133  1  0  0  0  0
 98133  1  0  0  0  0
 77134  1  0  0  0  0
 82134  1  0  0  0  0
130134  1  0  0  0  0
 79135  1  0  0  0  0
103135  1  0  0  0  0
126135  1  0  0  0  0
 74136  1  0  0  0  0
 87136  1  0  0  0  0
 93137  1  0  0  0  0
 98137  1  0  0  0  0
136137  1  0  0  0  0
 75138  1  0  0  0  0
101138  1  0  0  0  0
133138  1  0  0  0  0
 70139  1  0  0  0  0
 87139  1  0  0  0  0
124139  1  0  0  0  0
 72140  1  0  0  0  0
102140  1  0  0  0  0
105140  1  0  0  0  0
100141  1  0  0  0  0
122141  1  0  0  0  0
123141  1  0  0  0  0
M  END
