 xtb: 6.7.1pre (5071a88)
          08312618333D

174159  0     0  0            999 V2000
   13.0848   -1.9172    2.0867 C   0  0  0  0  0  0  0  0  0  0  0  0
   12.0790   -1.2138    1.5613 C   0  0  0  0  0  0  0  0  0  0  0  0
   11.1748   -0.2962    2.3158 C   0  0  0  0  0  0  0  0  0  0  0  0
   10.6664    0.5892    1.1991 C   0  0  0  0  0  0  0  0  0  0  0  0
    9.3801    1.1244    1.5127 O   0  0  0  0  0  0  0  0  0  0  0  0
    8.5197    1.1481    0.3771 C   0  0  0  0  0  0  0  0  0  0  0  0
    7.2311    1.8878    0.7098 C   0  0  0  0  0  0  0  0  0  0  0  0
    6.2768    1.8280   -0.4847 C   0  0  0  0  0  0  0  0  0  0  0  0
    5.0821    2.5374   -0.1501 O   0  0  0  0  0  0  0  0  0  0  0  0
    3.8509    1.7966   -0.1212 C   0  0  0  0  0  0  0  0  0  0  0  0
    3.1647    1.9157   -1.4879 C   0  0  0  0  0  0  0  0  0  0  0  0
    2.7190    0.6649   -2.2386 C   0  0  0  0  0  0  0  0  0  0  0  0
    1.9722   -0.4571   -1.5052 C   0  0  0  0  0  0  0  0  0  0  0  0
    0.7532   -0.7432   -2.2123 O   0  0  0  0  0  0  0  0  0  0  0  0
   -0.4423   -0.0985   -1.7659 C   0  0  0  0  0  0  0  0  0  0  0  0
   -1.4066   -1.1610   -1.2410 C   0  0  0  0  0  0  0  0  0  0  0  0
   -2.6995   -0.5187   -0.7535 C   0  0  0  0  0  0  0  0  0  0  0  0
   -3.5349   -1.5418   -0.2021 O   0  0  0  0  0  0  0  0  0  0  0  0
   -4.4858   -1.0870    0.7687 C   0  0  0  0  0  0  0  0  0  0  0  0
   -5.7070   -1.9944    0.6877 C   0  0  0  0  0  0  0  0  0  0  0  0
   -6.8353   -1.5043    1.5987 C   0  0  0  0  0  0  0  0  0  0  0  0
   -8.0733   -2.1785    1.3652 O   0  0  0  0  0  0  0  0  0  0  0  0
   -8.6411   -1.9756    0.0624 C   0  0  0  0  0  0  0  0  0  0  0  0
  -10.1233   -2.3539    0.1300 C   0  0  0  0  0  0  0  0  0  0  0  0
  -10.9873   -1.1145    0.2971 C   0  0  0  0  0  0  0  0  0  0  0  0
  -10.7921   -0.1702   -0.8949 C   0  0  0  0  0  0  0  0  0  0  0  0
  -11.3425    1.2447   -0.5947 C   0  0  0  0  0  0  0  0  0  0  0  0
  -11.2453    2.1576   -1.7353 N   0  0  0  0  0  0  0  0  0  0  0  0
   -9.4465   -0.1302   -1.3877 O   0  0  0  0  0  0  0  0  0  0  0  0
   -8.4070   -0.5577   -0.5090 C   0  0  0  0  0  0  0  0  0  0  0  0
   -8.0601    0.5018    0.5372 C   0  0  0  0  0  0  0  0  0  0  0  0
   -7.0579    0.0168    1.5891 C   0  0  0  0  0  0  0  0  0  0  0  0
   -5.8465    0.7762    1.5704 O   0  0  0  0  0  0  0  0  0  0  0  0
   -4.9089    0.3751    0.5736 C   0  0  0  0  0  0  0  0  0  0  0  0
   -3.6933    1.3043    0.6552 C   0  0  0  0  0  0  0  0  0  0  0  0
   -2.3958    0.5994    0.2503 C   0  0  0  0  0  0  0  0  0  0  0  0
   -1.4922    1.5739   -0.2755 O   0  0  0  0  0  0  0  0  0  0  0  0
   -0.2508    1.0437   -0.7551 C   0  0  0  0  0  0  0  0  0  0  0  0
    0.7067    0.7089    0.3918 C   0  0  0  0  0  0  0  0  0  0  0  0
    1.7400   -0.3478    0.0003 C   0  0  0  0  0  0  0  0  0  0  0  0
    2.8798   -0.3208    0.8471 O   0  0  0  0  0  0  0  0  0  0  0  0
    4.0433    0.4187    0.5062 C   0  0  0  0  0  0  0  0  0  0  0  0
    5.0832   -0.4445   -0.2072 C   0  0  0  0  0  0  0  0  0  0  0  0
    6.0919    0.3884   -1.0040 C   0  0  0  0  0  0  0  0  0  0  0  0
    7.3339   -0.3120   -1.1786 O   0  0  0  0  0  0  0  0  0  0  0  0
    8.1834   -0.2904   -0.0278 C   0  0  0  0  0  0  0  0  0  0  0  0
    9.4447   -1.1165   -0.2940 C   0  0  0  0  0  0  0  0  0  0  0  0
   10.7329   -0.3382   -0.0195 C   0  0  0  0  0  0  0  0  0  0  0  0
   11.8254   -1.2472    0.1980 O   0  0  0  0  0  0  0  0  0  0  0  0
   13.3069   -1.8847    3.1476 H   0  0  0  0  0  0  0  0  0  0  0  0
   13.7065   -2.5457    1.4572 H   0  0  0  0  0  0  0  0  0  0  0  0
   11.6922    0.2846    3.0855 H   0  0  0  0  0  0  0  0  0  0  0  0
   10.3586   -0.8529    2.7895 H   0  0  0  0  0  0  0  0  0  0  0  0
   11.3581    1.4300    1.0571 H   0  0  0  0  0  0  0  0  0  0  0  0
    9.0102    1.6858   -0.4464 H   0  0  0  0  0  0  0  0  0  0  0  0
    7.4470    2.9303    0.9760 H   0  0  0  0  0  0  0  0  0  0  0  0
    6.7628    1.4653    1.6078 H   0  0  0  0  0  0  0  0  0  0  0  0
    6.7529    2.4048   -1.2888 H   0  0  0  0  0  0  0  0  0  0  0  0
    3.2241    2.3700    0.5725 H   0  0  0  0  0  0  0  0  0  0  0  0
    3.8080    2.4914   -2.1680 H   0  0  0  0  0  0  0  0  0  0  0  0
    2.2867    2.5597   -1.3576 H   0  0  0  0  0  0  0  0  0  0  0  0
    3.6073    0.2180   -2.7013 H   0  0  0  0  0  0  0  0  0  0  0  0
    2.1201    0.9974   -3.0980 H   0  0  0  0  0  0  0  0  0  0  0  0
    2.5758   -1.3597   -1.6612 H   0  0  0  0  0  0  0  0  0  0  0  0
   -0.9091    0.3289   -2.6631 H   0  0  0  0  0  0  0  0  0  0  0  0
   -0.9447   -1.7433   -0.4337 H   0  0  0  0  0  0  0  0  0  0  0  0
   -1.6202   -1.9013   -2.0227 H   0  0  0  0  0  0  0  0  0  0  0  0
   -3.2160   -0.0987   -1.6272 H   0  0  0  0  0  0  0  0  0  0  0  0
   -4.0352   -1.2100    1.7624 H   0  0  0  0  0  0  0  0  0  0  0  0
   -5.4352   -3.0236    0.9561 H   0  0  0  0  0  0  0  0  0  0  0  0
   -6.0224   -2.0749   -0.3576 H   0  0  0  0  0  0  0  0  0  0  0  0
   -6.5326   -1.7705    2.6202 H   0  0  0  0  0  0  0  0  0  0  0  0
   -8.1681   -2.7090   -0.6031 H   0  0  0  0  0  0  0  0  0  0  0  0
  -10.4127   -2.8559   -0.8020 H   0  0  0  0  0  0  0  0  0  0  0  0
  -10.3145   -3.0554    0.9500 H   0  0  0  0  0  0  0  0  0  0  0  0
  -10.7269   -0.6178    1.2391 H   0  0  0  0  0  0  0  0  0  0  0  0
  -12.0444   -1.3936    0.3783 H   0  0  0  0  0  0  0  0  0  0  0  0
  -11.3806   -0.5743   -1.7294 H   0  0  0  0  0  0  0  0  0  0  0  0
  -12.3944    1.1633   -0.2975 H   0  0  0  0  0  0  0  0  0  0  0  0
  -10.8006    1.7003    0.2384 H   0  0  0  0  0  0  0  0  0  0  0  0
  -11.5921    1.7041   -2.5783 H   0  0  0  0  0  0  0  0  0  0  0  0
  -11.8203    2.9812   -1.5726 H   0  0  0  0  0  0  0  0  0  0  0  0
   -7.5252   -0.6254   -1.1579 H   0  0  0  0  0  0  0  0  0  0  0  0
   -7.7111    1.4147    0.0387 H   0  0  0  0  0  0  0  0  0  0  0  0
   -8.9708    0.8043    1.0628 H   0  0  0  0  0  0  0  0  0  0  0  0
   -7.5179    0.2676    2.5548 H   0  0  0  0  0  0  0  0  0  0  0  0
   -5.3606    0.5023   -0.4192 H   0  0  0  0  0  0  0  0  0  0  0  0
   -3.5772    1.7138    1.6674 H   0  0  0  0  0  0  0  0  0  0  0  0
   -3.8732    2.1835    0.0224 H   0  0  0  0  0  0  0  0  0  0  0  0
   -1.9672    0.1628    1.1610 H   0  0  0  0  0  0  0  0  0  0  0  0
    0.2063    1.8702   -1.3095 H   0  0  0  0  0  0  0  0  0  0  0  0
    0.1695    0.3543    1.2792 H   0  0  0  0  0  0  0  0  0  0  0  0
    1.1766    1.6319    0.7459 H   0  0  0  0  0  0  0  0  0  0  0  0
    1.2580   -1.2976    0.2722 H   0  0  0  0  0  0  0  0  0  0  0  0
    4.5004    0.6231    1.4850 H   0  0  0  0  0  0  0  0  0  0  0  0
    5.5759   -1.0798    0.5379 H   0  0  0  0  0  0  0  0  0  0  0  0
    4.6184   -1.1759   -0.8762 H   0  0  0  0  0  0  0  0  0  0  0  0
    5.6839    0.4802   -2.0165 H   0  0  0  0  0  0  0  0  0  0  0  0
    7.6677   -0.7848    0.8050 H   0  0  0  0  0  0  0  0  0  0  0  0
    9.4189   -2.0156    0.3365 H   0  0  0  0  0  0  0  0  0  0  0  0
    9.4647   -1.5002   -1.3219 H   0  0  0  0  0  0  0  0  0  0  0  0
   10.9708    0.2566   -0.9106 H   0  0  0  0  0  0  0  0  0  0  0  0
    2.1012    0.0000    3.3450 B   0  0  0  0  0  0  0  0  0  0  0  0
   -2.1012    0.0000    3.3450 B   0  0  0  0  0  0  0  0  0  0  0  0
    0.0000    2.1012    3.3450 B   0  0  0  0  0  0  0  0  0  0  0  0
    0.0000   -2.1012    3.3450 B   0  0  0  0  0  0  0  0  0  0  0  0
    3.3450    2.1012    0.0000 B   0  0  0  0  0  0  0  0  0  0  0  0
    3.3450   -2.1012    0.0000 B   0  0  0  0  0  0  0  0  0  0  0  0
    3.3450    0.0000    2.1012 B   0  0  0  0  0  0  0  0  0  0  0  0
    3.3450    0.0000   -2.1012 B   0  0  0  0  0  0  0  0  0  0  0  0
   -3.3450    2.1012    0.0000 B   0  0  0  0  0  0  0  0  0  0  0  0
   -3.3450   -2.1012    0.0000 B   0  0  0  0  0  0  0  0  0  0  0  0
   -3.3450    0.0000    2.1012 B   0  0  0  0  0  0  0  0  0  0  0  0
   -3.3450    0.0000   -2.1012 B   0  0  0  0  0  0  0  0  0  0  0  0
    2.1012    0.0000   -3.3450 B   0  0  0  0  0  0  0  0  0  0  0  0
   -2.1012    0.0000   -3.3450 B   0  0  0  0  0  0  0  0  0  0  0  0
    0.0000    2.1012   -3.3450 B   0  0  0  0  0  0  0  0  0  0  0  0
    0.0000   -2.1012   -3.3450 B   0  0  0  0  0  0  0  0  0  0  0  0
    0.0000    3.3450    2.1012 B   0  0  0  0  0  0  0  0  0  0  0  0
    0.0000    3.3450   -2.1012 B   0  0  0  0  0  0  0  0  0  0  0  0
    0.0000   -3.3450    2.1012 B   0  0  0  0  0  0  0  0  0  0  0  0
    0.0000   -3.3450   -2.1012 B   0  0  0  0  0  0  0  0  0  0  0  0
    2.1012    3.3450    0.0000 B   0  0  0  0  0  0  0  0  0  0  0  0
   -2.1012    3.3450    0.0000 B   0  0  0  0  0  0  0  0  0  0  0  0
    2.1012   -3.3450    0.0000 B   0  0  0  0  0  0  0  0  0  0  0  0
   -2.1012   -3.3450    0.0000 B   0  0  0  0  0  0  0  0  0  0  0  0
    1.4800    1.4800    3.5800 B   0  0  0  0  0  0  0  0  0  0  0  0
   -1.4800    1.4800    3.5800 B   0  0  0  0  0  0  0  0  0  0  0  0
    1.4800   -1.4800    3.5800 B   0  0  0  0  0  0  0  0  0  0  0  0
   -1.4800   -1.4800    3.5800 B   0  0  0  0  0  0  0  0  0  0  0  0
    3.5800    1.4800    1.4800 B   0  0  0  0  0  0  0  0  0  0  0  0
    3.5800   -1.4800    1.4800 B   0  0  0  0  0  0  0  0  0  0  0  0
    3.5800    1.4800   -1.4800 B   0  0  0  0  0  0  0  0  0  0  0  0
    3.5800   -1.4800   -1.4800 B   0  0  0  0  0  0  0  0  0  0  0  0
   -3.5800    1.4800    1.4800 B   0  0  0  0  0  0  0  0  0  0  0  0
   -3.5800   -1.4800    1.4800 B   0  0  0  0  0  0  0  0  0  0  0  0
   -3.5800    1.4800   -1.4800 B   0  0  0  0  0  0  0  0  0  0  0  0
   -3.5800   -1.4800   -1.4800 B   0  0  0  0  0  0  0  0  0  0  0  0
    2.1012    0.0000    3.9200 N   0  0  0  0  0  0  0  0  0  0  0  0
   -2.1012    0.0000    3.9200 N   0  0  0  0  0  0  0  0  0  0  0  0
    0.0000    2.1012    3.9200 N   0  0  0  0  0  0  0  0  0  0  0  0
    0.0000   -2.1012    3.9200 N   0  0  0  0  0  0  0  0  0  0  0  0
    3.9200    2.1012    0.0000 N   0  0  0  0  0  0  0  0  0  0  0  0
    3.9200   -2.1012    0.0000 N   0  0  0  0  0  0  0  0  0  0  0  0
    3.9200    0.0000    2.1012 N   0  0  0  0  0  0  0  0  0  0  0  0
    3.9200    0.0000   -2.1012 N   0  0  0  0  0  0  0  0  0  0  0  0
   -3.9200    2.1012    0.0000 N   0  0  0  0  0  0  0  0  0  0  0  0
   -3.9200   -2.1012    0.0000 N   0  0  0  0  0  0  0  0  0  0  0  0
   -3.9200    0.0000    2.1012 N   0  0  0  0  0  0  0  0  0  0  0  0
   -3.9200    0.0000   -2.1012 N   0  0  0  0  0  0  0  0  0  0  0  0
    2.1012    0.0000   -3.9200 N   0  0  0  0  0  0  0  0  0  0  0  0
   -2.1012    0.0000   -3.9200 N   0  0  0  0  0  0  0  0  0  0  0  0
    0.0000    2.1012   -3.9200 N   0  0  0  0  0  0  0  0  0  0  0  0
    0.0000   -2.1012   -3.9200 N   0  0  0  0  0  0  0  0  0  0  0  0
    0.0000    3.9200    2.1012 N   0  0  0  0  0  0  0  0  0  0  0  0
    0.0000    3.9200   -2.1012 N   0  0  0  0  0  0  0  0  0  0  0  0
    0.0000   -3.9200    2.1012 N   0  0  0  0  0  0  0  0  0  0  0  0
    0.0000   -3.9200   -2.1012 N   0  0  0  0  0  0  0  0  0  0  0  0
    2.1012    3.9200    0.0000 N   0  0  0  0  0  0  0  0  0  0  0  0
   -2.1012    3.9200    0.0000 N   0  0  0  0  0  0  0  0  0  0  0  0
    2.1012   -3.9200    0.0000 N   0  0  0  0  0  0  0  0  0  0  0  0
   -2.1012   -3.9200    0.0000 N   0  0  0  0  0  0  0  0  0  0  0  0
    1.4800    1.4800    4.2200 N   0  0  0  0  0  0  0  0  0  0  0  0
   -1.4800    1.4800    4.2200 N   0  0  0  0  0  0  0  0  0  0  0  0
    1.4800   -1.4800    4.2200 N   0  0  0  0  0  0  0  0  0  0  0  0
   -1.4800   -1.4800    4.2200 N   0  0  0  0  0  0  0  0  0  0  0  0
    4.2200    1.4800    1.4800 N   0  0  0  0  0  0  0  0  0  0  0  0
    4.2200   -1.4800    1.4800 N   0  0  0  0  0  0  0  0  0  0  0  0
    4.2200    1.4800   -1.4800 N   0  0  0  0  0  0  0  0  0  0  0  0
    4.2200   -1.4800   -1.4800 N   0  0  0  0  0  0  0  0  0  0  0  0
   -4.2200    1.4800    1.4800 N   0  0  0  0  0  0  0  0  0  0  0  0
   -4.2200   -1.4800    1.4800 N   0  0  0  0  0  0  0  0  0  0  0  0
   -4.2200    1.4800   -1.4800 N   0  0  0  0  0  0  0  0  0  0  0  0
   -4.2200   -1.4800   -1.4800 N   0  0  0  0  0  0  0  0  0  0  0  0
  1  2  2  0  0  0  0
  2  3  1  0  0  0  0
  3  4  1  0  0  0  0
  4  5  1  0  0  0  0
  5  6  1  0  0  0  0
  6  7  1  0  0  0  0
  7  8  1  0  0  0  0
  8  9  1  0  0  0  0
 11 12  1  0  0  0  0
 12 13  1  0  0  0  0
 13 14  1  0  0  0  0
 14 15  1  0  0  0  0
 15 16  1  0  0  0  0
 16 17  1  0  0  0  0
 17 18  1  0  0  0  0
 19 20  1  0  0  0  0
 20 21  1  0  0  0  0
 21 22  1  0  0  0  0
 22 23  1  0  0  0  0
 23 24  1  0  0  0  0
 24 25  1  0  0  0  0
 25 26  1  0  0  0  0
 26 27  1  0  0  0  0
 27 28  1  0  0  0  0
 26 29  1  0  0  0  0
 23 30  1  0  0  0  0
 29 30  1  0  0  0  0
 30 31  1  0  0  0  0
 21 32  1  0  0  0  0
 31 32  1  0  0  0  0
 32 33  1  0  0  0  0
 19 34  1  0  0  0  0
 33 34  1  0  0  0  0
 34 35  1  0  0  0  0
 17 36  1  0  0  0  0
 35 36  1  0  0  0  0
 36 37  1  0  0  0  0
 15 38  1  0  0  0  0
 37 38  1  0  0  0  0
 38 39  1  0  0  0  0
 13 40  1  0  0  0  0
 39 40  1  0  0  0  0
 40 41  1  0  0  0  0
 10 42  1  0  0  0  0
 41 42  1  0  0  0  0
 42 43  1  0  0  0  0
  8 44  1  0  0  0  0
 43 44  1  0  0  0  0
 44 45  1  0  0  0  0
  6 46  1  0  0  0  0
 45 46  1  0  0  0  0
 46 47  1  0  0  0  0
  4 48  1  0  0  0  0
 47 48  1  0  0  0  0
  2 49  1  0  0  0  0
 48 49  1  0  0  0  0
  1 50  1  0  0  0  0
  1 51  1  0  0  0  0
  3 52  1  0  0  0  0
  3 53  1  0  0  0  0
  4 54  1  0  0  0  0
  6 55  1  0  0  0  0
  7 56  1  0  0  0  0
  7 57  1  0  0  0  0
  8 58  1  0  0  0  0
 11 60  1  0  0  0  0
 11 61  1  0  0  0  0
 12 63  1  0  0  0  0
 13 64  1  0  0  0  0
 15 65  1  0  0  0  0
 16 66  1  0  0  0  0
 16 67  1  0  0  0  0
 20 70  1  0  0  0  0
 20 71  1  0  0  0  0
 21 72  1  0  0  0  0
 23 73  1  0  0  0  0
 24 74  1  0  0  0  0
 24 75  1  0  0  0  0
 25 76  1  0  0  0  0
 25 77  1  0  0  0  0
 26 78  1  0  0  0  0
 27 79  1  0  0  0  0
 27 80  1  0  0  0  0
 28 81  1  0  0  0  0
 28 82  1  0  0  0  0
 30 83  1  0  0  0  0
 31 84  1  0  0  0  0
 31 85  1  0  0  0  0
 32 86  1  0  0  0  0
 34 87  1  0  0  0  0
 36 90  1  0  0  0  0
 38 91  1  0  0  0  0
 39 92  1  0  0  0  0
 39 93  1  0  0  0  0
 40 94  1  0  0  0  0
 43 96  1  0  0  0  0
 43 97  1  0  0  0  0
 44 98  1  0  0  0  0
 46 99  1  0  0  0  0
 47100  1  0  0  0  0
 47101  1  0  0  0  0
 48102  1  0  0  0  0
 10107  1  0  0  0  0
 59107  1  0  0  0  0
 12110  1  0  0  0  0
 18112  1  0  0  0  0
112126  1  0  0  0  0
 11133  1  0  0  0  0
 64134  1  0  0  0  0
 35135  1  0  0  0  0
 88135  1  0  0  0  0
 17138  1  0  0  0  0
103139  3  0  0  0  0
104140  3  0  0  0  0
105141  3  0  0  0  0
106142  3  0  0  0  0
 10143  3  0  0  0  0
107143  1  0  0  0  0
108144  3  0  0  0  0
109145  3  0  0  0  0
 62146  1  0  0  0  0
110146  2  0  0  0  0
 35147  1  0  0  0  0
 89147  1  0  0  0  0
111147  2  0  0  0  0
 18148  4  0  0  0  0
112148  1  0  0  0  0
113149  3  0  0  0  0
114150  3  0  0  0  0
115151  3  0  0  0  0
116152  3  0  0  0  0
117153  3  0  0  0  0
118154  3  0  0  0  0
119155  3  0  0  0  0
120156  3  0  0  0  0
121157  3  0  0  0  0
122158  3  0  0  0  0
123159  3  0  0  0  0
124160  3  0  0  0  0
125161  3  0  0  0  0
126162  3  0  0  0  0
127163  3  0  0  0  0
128164  3  0  0  0  0
129165  3  0  0  0  0
130166  3  0  0  0  0
 42167  1  0  0  0  0
131167  2  0  0  0  0
132168  3  0  0  0  0
 11169  1  0  0  0  0
133169  2  0  0  0  0
 97170  1  0  0  0  0
134170  3  0  0  0  0
 35171  1  0  0  0  0
135171  2  0  0  0  0
 19172  4  0  0  0  0
 69172  1  0  0  0  0
136172  2  0  0  0  0
137173  3  0  0  0  0
138174  3  0  0  0  0
M  END
