 xtb: 6.7.1pre (5071a88)
          08312622213D

174220  0     0  0            999 V2000
   13.0848   -1.9172   12.8414 C   0  0  0  0  0  0  0  0  0  0  0  0
   12.0790   -1.2138   12.3159 C   0  0  0  0  0  0  0  0  0  0  0  0
   11.1748   -0.2962   13.0704 C   0  0  0  0  0  0  0  0  0  0  0  0
   10.6664    0.5892   11.9537 C   0  0  0  0  0  0  0  0  0  0  0  0
    9.3801    1.1244   12.2674 O   0  0  0  0  0  0  0  0  0  0  0  0
    8.5197    1.1481   11.1318 C   0  0  0  0  0  0  0  0  0  0  0  0
    7.2311    1.8878   11.4645 C   0  0  0  0  0  0  0  0  0  0  0  0
    6.2768    1.8280   10.2699 C   0  0  0  0  0  0  0  0  0  0  0  0
    5.0821    2.5374   10.6045 O   0  0  0  0  0  0  0  0  0  0  0  0
    3.8509    1.7966   10.6335 C   0  0  0  0  0  0  0  0  0  0  0  0
    3.1647    1.9157    9.2667 C   0  0  0  0  0  0  0  0  0  0  0  0
    2.7190    0.6649    8.5160 C   0  0  0  0  0  0  0  0  0  0  0  0
    1.9722   -0.4571    9.2495 C   0  0  0  0  0  0  0  0  0  0  0  0
    0.7532   -0.7432    8.5423 O   0  0  0  0  0  0  0  0  0  0  0  0
   -0.4423   -0.0985    8.9887 C   0  0  0  0  0  0  0  0  0  0  0  0
   -1.4066   -1.1610    9.5137 C   0  0  0  0  0  0  0  0  0  0  0  0
   -2.6995   -0.5187   10.0011 C   0  0  0  0  0  0  0  0  0  0  0  0
   -3.5349   -1.5418   10.5525 O   0  0  0  0  0  0  0  0  0  0  0  0
   -4.4858   -1.0870   11.5233 C   0  0  0  0  0  0  0  0  0  0  0  0
   -5.7070   -1.9944   11.4424 C   0  0  0  0  0  0  0  0  0  0  0  0
   -6.8353   -1.5043   12.3533 C   0  0  0  0  0  0  0  0  0  0  0  0
   -8.0733   -2.1785   12.1198 O   0  0  0  0  0  0  0  0  0  0  0  0
   -8.6411   -1.9756   10.8170 C   0  0  0  0  0  0  0  0  0  0  0  0
  -10.1233   -2.3539   10.8846 C   0  0  0  0  0  0  0  0  0  0  0  0
  -10.9873   -1.1145   11.0518 C   0  0  0  0  0  0  0  0  0  0  0  0
  -10.7921   -0.1702    9.8597 C   0  0  0  0  0  0  0  0  0  0  0  0
  -11.3425    1.2447   10.1599 C   0  0  0  0  0  0  0  0  0  0  0  0
  -11.2453    2.1576    9.0193 N   0  0  0  0  0  0  0  0  0  0  0  0
   -9.4465   -0.1302    9.3670 O   0  0  0  0  0  0  0  0  0  0  0  0
   -8.4070   -0.5577   10.2457 C   0  0  0  0  0  0  0  0  0  0  0  0
   -8.0601    0.5018   11.2918 C   0  0  0  0  0  0  0  0  0  0  0  0
   -7.0579    0.0168   12.3438 C   0  0  0  0  0  0  0  0  0  0  0  0
   -5.8465    0.7762   12.3251 O   0  0  0  0  0  0  0  0  0  0  0  0
   -4.9089    0.3751   11.3283 C   0  0  0  0  0  0  0  0  0  0  0  0
   -3.6933    1.3043   11.4099 C   0  0  0  0  0  0  0  0  0  0  0  0
   -2.3958    0.5994   11.0050 C   0  0  0  0  0  0  0  0  0  0  0  0
   -1.4922    1.5739   10.4792 O   0  0  0  0  0  0  0  0  0  0  0  0
   -0.2508    1.0437    9.9996 C   0  0  0  0  0  0  0  0  0  0  0  0
    0.7067    0.7089   11.1465 C   0  0  0  0  0  0  0  0  0  0  0  0
    1.7400   -0.3478   10.7549 C   0  0  0  0  0  0  0  0  0  0  0  0
    2.8798   -0.3208   11.6018 O   0  0  0  0  0  0  0  0  0  0  0  0
    4.0433    0.4187   11.2609 C   0  0  0  0  0  0  0  0  0  0  0  0
    5.0832   -0.4445   10.5474 C   0  0  0  0  0  0  0  0  0  0  0  0
    6.0919    0.3884    9.7507 C   0  0  0  0  0  0  0  0  0  0  0  0
    7.3339   -0.3120    9.5760 O   0  0  0  0  0  0  0  0  0  0  0  0
    8.1834   -0.2904   10.7268 C   0  0  0  0  0  0  0  0  0  0  0  0
    9.4447   -1.1165   10.4606 C   0  0  0  0  0  0  0  0  0  0  0  0
   10.7329   -0.3382   10.7351 C   0  0  0  0  0  0  0  0  0  0  0  0
   11.8254   -1.2472   10.9526 O   0  0  0  0  0  0  0  0  0  0  0  0
   13.3069   -1.8847   13.9022 H   0  0  0  0  0  0  0  0  0  0  0  0
   13.7065   -2.5457   12.2119 H   0  0  0  0  0  0  0  0  0  0  0  0
   11.6922    0.2846   13.8401 H   0  0  0  0  0  0  0  0  0  0  0  0
   10.3586   -0.8529   13.5442 H   0  0  0  0  0  0  0  0  0  0  0  0
   11.3581    1.4300   11.8117 H   0  0  0  0  0  0  0  0  0  0  0  0
    9.0102    1.6858   10.3082 H   0  0  0  0  0  0  0  0  0  0  0  0
    7.4470    2.9303   11.7306 H   0  0  0  0  0  0  0  0  0  0  0  0
    6.7628    1.4653   12.3625 H   0  0  0  0  0  0  0  0  0  0  0  0
    6.7529    2.4048    9.4658 H   0  0  0  0  0  0  0  0  0  0  0  0
    3.2241    2.3700   11.3272 H   0  0  0  0  0  0  0  0  0  0  0  0
    3.8080    2.4914    8.5867 H   0  0  0  0  0  0  0  0  0  0  0  0
    2.2867    2.5597    9.3970 H   0  0  0  0  0  0  0  0  0  0  0  0
    3.6073    0.2180    8.0534 H   0  0  0  0  0  0  0  0  0  0  0  0
    2.1201    0.9974    7.6567 H   0  0  0  0  0  0  0  0  0  0  0  0
    2.5758   -1.3597    9.0935 H   0  0  0  0  0  0  0  0  0  0  0  0
   -0.9091    0.3289    8.0915 H   0  0  0  0  0  0  0  0  0  0  0  0
   -0.9447   -1.7433   10.3210 H   0  0  0  0  0  0  0  0  0  0  0  0
   -1.6202   -1.9013    8.7320 H   0  0  0  0  0  0  0  0  0  0  0  0
   -3.2160   -0.0987    9.1274 H   0  0  0  0  0  0  0  0  0  0  0  0
   -4.0352   -1.2100   12.5171 H   0  0  0  0  0  0  0  0  0  0  0  0
   -5.4352   -3.0236   11.7108 H   0  0  0  0  0  0  0  0  0  0  0  0
   -6.0224   -2.0749   10.3970 H   0  0  0  0  0  0  0  0  0  0  0  0
   -6.5326   -1.7705   13.3748 H   0  0  0  0  0  0  0  0  0  0  0  0
   -8.1681   -2.7090   10.1515 H   0  0  0  0  0  0  0  0  0  0  0  0
  -10.4127   -2.8559    9.9526 H   0  0  0  0  0  0  0  0  0  0  0  0
  -10.3145   -3.0554   11.7046 H   0  0  0  0  0  0  0  0  0  0  0  0
  -10.7269   -0.6178   11.9937 H   0  0  0  0  0  0  0  0  0  0  0  0
  -12.0444   -1.3936   11.1329 H   0  0  0  0  0  0  0  0  0  0  0  0
  -11.3806   -0.5743    9.0252 H   0  0  0  0  0  0  0  0  0  0  0  0
  -12.3944    1.1633   10.4571 H   0  0  0  0  0  0  0  0  0  0  0  0
  -10.8006    1.7003   10.9930 H   0  0  0  0  0  0  0  0  0  0  0  0
  -11.5921    1.7041    8.1764 H   0  0  0  0  0  0  0  0  0  0  0  0
  -11.8203    2.9812    9.1820 H   0  0  0  0  0  0  0  0  0  0  0  0
   -7.5252   -0.6254    9.5967 H   0  0  0  0  0  0  0  0  0  0  0  0
   -7.7111    1.4147   10.7934 H   0  0  0  0  0  0  0  0  0  0  0  0
   -8.9708    0.8043   11.8175 H   0  0  0  0  0  0  0  0  0  0  0  0
   -7.5179    0.2676   13.3094 H   0  0  0  0  0  0  0  0  0  0  0  0
   -5.3606    0.5023   10.3354 H   0  0  0  0  0  0  0  0  0  0  0  0
   -3.5772    1.7138   12.4221 H   0  0  0  0  0  0  0  0  0  0  0  0
   -3.8732    2.1835   10.7770 H   0  0  0  0  0  0  0  0  0  0  0  0
   -1.9672    0.1628   11.9156 H   0  0  0  0  0  0  0  0  0  0  0  0
    0.2063    1.8702    9.4451 H   0  0  0  0  0  0  0  0  0  0  0  0
    0.1695    0.3543   12.0338 H   0  0  0  0  0  0  0  0  0  0  0  0
    1.1766    1.6319   11.5005 H   0  0  0  0  0  0  0  0  0  0  0  0
    1.2580   -1.2976   11.0268 H   0  0  0  0  0  0  0  0  0  0  0  0
    4.5004    0.6231   12.2397 H   0  0  0  0  0  0  0  0  0  0  0  0
    5.5759   -1.0798   11.2926 H   0  0  0  0  0  0  0  0  0  0  0  0
    4.6184   -1.1759    9.8784 H   0  0  0  0  0  0  0  0  0  0  0  0
    5.6839    0.4802    8.7381 H   0  0  0  0  0  0  0  0  0  0  0  0
    7.6677   -0.7848   11.5597 H   0  0  0  0  0  0  0  0  0  0  0  0
    9.4189   -2.0156   11.0911 H   0  0  0  0  0  0  0  0  0  0  0  0
    9.4647   -1.5002    9.4328 H   0  0  0  0  0  0  0  0  0  0  0  0
   10.9708    0.2566    9.8441 H   0  0  0  0  0  0  0  0  0  0  0  0
    3.4592   -1.4546    1.6280 B   0  0  0  0  0  0  0  0  0  0  0  0
    3.4564    1.1299    0.9400 N   0  0  0  0  0  0  0  0  0  0  0  0
    2.5399    2.3625   -1.2610 B   0  0  0  0  0  0  0  0  0  0  0  0
    2.2931   -0.6416   -2.7306 N   0  0  0  0  0  0  0  0  0  0  0  0
    0.6905   -3.5611    2.7027 B   0  0  0  0  0  0  0  0  0  0  0  0
   -2.9397   -2.6548    1.7095 N   0  0  0  0  0  0  0  0  0  0  0  0
   -1.0382    4.0851    1.8312 B   0  0  0  0  0  0  0  0  0  0  0  0
   -0.6193    0.0177   -3.9419 N   0  0  0  0  0  0  0  0  0  0  0  0
   -0.4737    1.4453   -4.0917 B   0  0  0  0  0  0  0  0  0  0  0  0
    1.2096   -3.7868   -1.7394 N   0  0  0  0  0  0  0  0  0  0  0  0
   -3.8445    2.2094   -0.4937 B   0  0  0  0  0  0  0  0  0  0  0  0
   -2.7729    2.7636   -1.2118 N   0  0  0  0  0  0  0  0  0  0  0  0
    1.4057    0.8181   -4.8893 B   0  0  0  0  0  0  0  0  0  0  0  0
   -0.2358    3.3642    2.8335 N   0  0  0  0  0  0  0  0  0  0  0  0
    0.8983   -2.8798   -2.8138 B   0  0  0  0  0  0  0  0  0  0  0  0
   -0.4918    3.7666   -1.0101 N   0  0  0  0  0  0  0  0  0  0  0  0
   -0.8060    2.1823    3.2819 B   0  0  0  0  0  0  0  0  0  0  0  0
    1.6561   -1.2744    3.5036 N   0  0  0  0  0  0  0  0  0  0  0  0
   -0.2485    3.4699   -2.3799 B   0  0  0  0  0  0  0  0  0  0  0  0
    1.3087    0.0689    3.8170 N   0  0  0  0  0  0  0  0  0  0  0  0
   -1.5974   -0.5599   -3.0847 B   0  0  0  0  0  0  0  0  0  0  0  0
   -3.8325    1.7768    0.8316 N   0  0  0  0  0  0  0  0  0  0  0  0
    0.3376    4.4960    1.1839 B   0  0  0  0  0  0  0  0  0  0  0  0
    0.0433   -0.0140    4.4567 N   0  0  0  0  0  0  0  0  0  0  0  0
   -2.7088    2.2268    1.6012 B   0  0  0  0  0  0  0  0  0  0  0  0
    3.7727   -0.1326   -0.7655 N   0  0  0  0  0  0  0  0  0  0  0  0
   -2.2534   -3.6394    1.0085 B   0  0  0  0  0  0  0  0  0  0  0  0
    1.0558    3.7334    2.2357 N   0  0  0  0  0  0  0  0  0  0  0  0
   -1.8256   -0.7775    3.2198 B   0  0  0  0  0  0  0  0  0  0  0  0
   -2.4368   -3.6019   -0.4508 N   0  0  0  0  0  0  0  0  0  0  0  0
    3.0187   -1.0737   -1.5028 B   0  0  0  0  0  0  0  0  0  0  0  0
   -3.1580   -1.2526   -0.3843 N   0  0  0  0  0  0  0  0  0  0  0  0
    2.0347    2.9223    1.5617 B   0  0  0  0  0  0  0  0  0  0  0  0
   -0.5074   -2.9001   -2.4328 N   0  0  0  0  0  0  0  0  0  0  0  0
   -1.6735   -2.1129   -2.4916 B   0  0  0  0  0  0  0  0  0  0  0  0
    0.5901    3.9646   -0.1102 N   0  0  0  0  0  0  0  0  0  0  0  0
    1.0903    2.9596   -3.1825 B   0  0  0  0  0  0  0  0  0  0  0  0
    0.0774   -4.3592    1.7213 N   0  0  0  0  0  0  0  0  0  0  0  0
   -1.7840    3.4524   -0.4082 B   0  0  0  0  0  0  0  0  0  0  0  0
   -2.0135    3.4185    1.0316 N   0  0  0  0  0  0  0  0  0  0  0  0
    1.4659   -4.2121    1.4991 B   0  0  0  0  0  0  0  0  0  0  0  0
   -0.7980    1.0642    4.1946 N   0  0  0  0  0  0  0  0  0  0  0  0
   -2.6662   -2.4021   -1.1753 B   0  0  0  0  0  0  0  0  0  0  0  0
   -1.0744   -4.4843    0.9912 N   0  0  0  0  0  0  0  0  0  0  0  0
   -2.5037    0.4914   -2.1091 B   0  0  0  0  0  0  0  0  0  0  0  0
    2.3527   -3.8873    0.4531 N   0  0  0  0  0  0  0  0  0  0  0  0
    3.9123   -0.2024    0.7259 B   0  0  0  0  0  0  0  0  0  0  0  0
    1.9285    1.9570   -2.4651 N   0  0  0  0  0  0  0  0  0  0  0  0
    1.0012    2.2544   -4.6225 B   0  0  0  0  0  0  0  0  0  0  0  0
   -4.1860    0.8290   -0.3475 N   0  0  0  0  0  0  0  0  0  0  0  0
   -1.3389    2.4537   -3.1149 B   0  0  0  0  0  0  0  0  0  0  0  0
   -2.3596    1.9326   -2.3058 N   0  0  0  0  0  0  0  0  0  0  0  0
    3.0731   -2.6455    0.6011 B   0  0  0  0  0  0  0  0  0  0  0  0
    2.3352   -3.6737   -0.9709 N   0  0  0  0  0  0  0  0  0  0  0  0
    2.2179    0.5458    2.8084 B   0  0  0  0  0  0  0  0  0  0  0  0
   -2.0264    0.6119    3.6015 N   0  0  0  0  0  0  0  0  0  0  0  0
   -1.1017   -4.1838   -0.4410 B   0  0  0  0  0  0  0  0  0  0  0  0
   -3.2181    0.0417   -0.9586 N   0  0  0  0  0  0  0  0  0  0  0  0
    3.4478    1.2586   -0.5141 B   0  0  0  0  0  0  0  0  0  0  0  0
    2.5821    1.6330    1.9365 N   0  0  0  0  0  0  0  0  0  0  0  0
    1.4721   -1.5550   -3.5156 B   0  0  0  0  0  0  0  0  0  0  0  0
   -2.1026    1.7542    2.7608 N   0  0  0  0  0  0  0  0  0  0  0  0
    2.0408    0.7119   -3.2115 B   0  0  0  0  0  0  0  0  0  0  0  0
   -2.7209   -1.3417    2.3206 N   0  0  0  0  0  0  0  0  0  0  0  0
    0.6586   -0.5389   -4.4869 B   0  0  0  0  0  0  0  0  0  0  0  0
   -0.1687   -3.7594   -1.3565 N   0  0  0  0  0  0  0  0  0  0  0  0
    0.4856   -2.1056    3.4338 B   0  0  0  0  0  0  0  0  0  0  0  0
   -0.5873   -1.2050    3.8245 N   0  0  0  0  0  0  0  0  0  0  0  0
   -3.2244   -1.4514    1.0003 B   0  0  0  0  0  0  0  0  0  0  0  0
    2.6713   -0.8555    2.6211 N   0  0  0  0  0  0  0  0  0  0  0  0
    1.8786    3.3393   -0.1064 B   0  0  0  0  0  0  0  0  0  0  0  0
    2.8769   -2.3318   -0.7936 N   0  0  0  0  0  0  0  0  0  0  0  0
  1  2  2  0  0  0  0
  2  3  1  0  0  0  0
  3  4  1  0  0  0  0
  4  5  1  0  0  0  0
  5  6  1  0  0  0  0
  6  7  1  0  0  0  0
  7  8  1  0  0  0  0
  8  9  1  0  0  0  0
  9 10  1  0  0  0  0
 10 11  1  0  0  0  0
 11 12  1  0  0  0  0
 12 13  1  0  0  0  0
 13 14  1  0  0  0  0
 14 15  1  0  0  0  0
 15 16  1  0  0  0  0
 16 17  1  0  0  0  0
 17 18  1  0  0  0  0
 18 19  1  0  0  0  0
 19 20  1  0  0  0  0
 20 21  1  0  0  0  0
 21 22  1  0  0  0  0
 22 23  1  0  0  0  0
 23 24  1  0  0  0  0
 24 25  1  0  0  0  0
 25 26  1  0  0  0  0
 26 27  1  0  0  0  0
 27 28  1  0  0  0  0
 26 29  1  0  0  0  0
 23 30  1  0  0  0  0
 29 30  1  0  0  0  0
 30 31  1  0  0  0  0
 21 32  1  0  0  0  0
 31 32  1  0  0  0  0
 32 33  1  0  0  0  0
 19 34  1  0  0  0  0
 33 34  1  0  0  0  0
 34 35  1  0  0  0  0
 17 36  1  0  0  0  0
 35 36  1  0  0  0  0
 36 37  1  0  0  0  0
 15 38  1  0  0  0  0
 37 38  1  0  0  0  0
 38 39  1  0  0  0  0
 13 40  1  0  0  0  0
 39 40  1  0  0  0  0
 40 41  1  0  0  0  0
 10 42  1  0  0  0  0
 41 42  1  0  0  0  0
 42 43  1  0  0  0  0
  8 44  1  0  0  0  0
 43 44  1  0  0  0  0
 44 45  1  0  0  0  0
  6 46  1  0  0  0  0
 45 46  1  0  0  0  0
 46 47  1  0  0  0  0
  4 48  1  0  0  0  0
 47 48  1  0  0  0  0
  2 49  1  0  0  0  0
 48 49  1  0  0  0  0
  1 50  1  0  0  0  0
  1 51  1  0  0  0  0
  3 52  1  0  0  0  0
  3 53  1  0  0  0  0
  4 54  1  0  0  0  0
  6 55  1  0  0  0  0
  7 56  1  0  0  0  0
  7 57  1  0  0  0  0
  8 58  1  0  0  0  0
 10 59  1  0  0  0  0
 11 60  1  0  0  0  0
 11 61  1  0  0  0  0
 12 62  1  0  0  0  0
 12 63  1  0  0  0  0
 13 64  1  0  0  0  0
 15 65  1  0  0  0  0
 16 66  1  0  0  0  0
 16 67  1  0  0  0  0
 17 68  1  0  0  0  0
 19 69  1  0  0  0  0
 20 70  1  0  0  0  0
 20 71  1  0  0  0  0
 21 72  1  0  0  0  0
 23 73  1  0  0  0  0
 24 74  1  0  0  0  0
 24 75  1  0  0  0  0
 25 76  1  0  0  0  0
 25 77  1  0  0  0  0
 26 78  1  0  0  0  0
 27 79  1  0  0  0  0
 27 80  1  0  0  0  0
 28 81  1  0  0  0  0
 28 82  1  0  0  0  0
 30 83  1  0  0  0  0
 31 84  1  0  0  0  0
 31 85  1  0  0  0  0
 32 86  1  0  0  0  0
 34 87  1  0  0  0  0
 35 88  1  0  0  0  0
 35 89  1  0  0  0  0
 36 90  1  0  0  0  0
 38 91  1  0  0  0  0
 39 92  1  0  0  0  0
 39 93  1  0  0  0  0
 40 94  1  0  0  0  0
 42 95  1  0  0  0  0
 43 96  1  0  0  0  0
 43 97  1  0  0  0  0
 44 98  1  0  0  0  0
 46 99  1  0  0  0  0
 47100  1  0  0  0  0
 47101  1  0  0  0  0
 48102  1  0  0  0  0
110111  1  0  0  0  0
113114  1  0  0  0  0
109116  1  0  0  0  0
112117  1  0  0  0  0
116119  1  0  0  0  0
118121  1  0  0  0  0
120122  1  0  0  0  0
110123  1  0  0  0  0
113124  1  0  0  0  0
109125  1  0  0  0  0
122126  1  0  0  0  0
124127  1  0  0  0  0
108129  1  0  0  0  0
116130  1  0  0  0  0
125130  1  0  0  0  0
129132  1  0  0  0  0
106133  1  0  0  0  0
128133  1  0  0  0  0
130135  1  0  0  0  0
117136  1  0  0  0  0
123137  1  0  0  0  0
136137  1  0  0  0  0
118138  1  0  0  0  0
125138  1  0  0  0  0
121139  1  0  0  0  0
107140  1  0  0  0  0
114141  1  0  0  0  0
118141  1  0  0  0  0
109142  1  0  0  0  0
127142  1  0  0  0  0
141142  1  0  0  0  0
107143  1  0  0  0  0
140143  1  0  0  0  0
119144  1  0  0  0  0
126144  1  0  0  0  0
132145  1  0  0  0  0
134145  1  0  0  0  0
137145  1  0  0  0  0
129146  1  0  0  0  0
140146  1  0  0  0  0
123147  1  0  0  0  0
143148  1  0  0  0  0
103149  1  0  0  0  0
104149  1  0  0  0  0
128149  1  0  0  0  0
105150  1  0  0  0  0
139150  1  0  0  0  0
111151  1  0  0  0  0
115151  1  0  0  0  0
139151  1  0  0  0  0
113152  1  0  0  0  0
124152  1  0  0  0  0
111153  1  0  0  0  0
121153  1  0  0  0  0
114154  1  0  0  0  0
147154  1  0  0  0  0
153154  1  0  0  0  0
103155  1  0  0  0  0
148155  1  0  0  0  0
112156  1  0  0  0  0
148156  1  0  0  0  0
122157  1  0  0  0  0
131158  1  0  0  0  0
144158  1  0  0  0  0
132159  1  0  0  0  0
146159  1  0  0  0  0
134160  1  0  0  0  0
147160  1  0  0  0  0
152160  1  0  0  0  0
104161  1  0  0  0  0
105161  1  0  0  0  0
128161  1  0  0  0  0
104162  1  0  0  0  0
135162  1  0  0  0  0
157162  1  0  0  0  0
106163  1  0  0  0  0
117163  1  0  0  0  0
119164  1  0  0  0  0
127164  1  0  0  0  0
158164  1  0  0  0  0
106165  1  0  0  0  0
115165  1  0  0  0  0
150165  1  0  0  0  0
108166  1  0  0  0  0
131166  1  0  0  0  0
110167  1  0  0  0  0
115167  1  0  0  0  0
163167  1  0  0  0  0
112168  1  0  0  0  0
136168  1  0  0  0  0
159168  1  0  0  0  0
107169  1  0  0  0  0
120169  1  0  0  0  0
126170  1  0  0  0  0
131170  1  0  0  0  0
169170  1  0  0  0  0
108171  1  0  0  0  0
134171  1  0  0  0  0
166171  1  0  0  0  0
103172  1  0  0  0  0
120172  1  0  0  0  0
157172  1  0  0  0  0
105173  1  0  0  0  0
135173  1  0  0  0  0
138173  1  0  0  0  0
133174  1  0  0  0  0
155174  1  0  0  0  0
156174  1  0  0  0  0
M  END
