 xtb: 6.7.1pre (5071a88)
          08312622223D

137176  0     0  0            999 V2000
   10.3978    1.1116   10.9869 C   0  0  0  0  0  0  0  0  0  0  0  0
    9.3996    0.0420   10.5560 C   0  0  0  0  0  0  0  0  0  0  0  0
    8.0128    0.4511   10.8021 N   0  0  0  0  0  0  0  0  0  0  0  0
    7.6405    0.4432   12.2319 C   0  0  0  0  0  0  0  0  0  0  0  0
    6.6451   -0.6677   12.6420 C   0  0  0  0  0  0  0  0  0  0  0  0
    5.3989   -0.7183   11.8514 N   0  0  0  0  0  0  0  0  0  0  0  0
    4.3049    0.0048   12.5189 C   0  0  0  0  0  0  0  0  0  0  0  0
    2.9607   -0.2117   11.8712 C   0  0  0  0  0  0  0  0  0  0  0  0
    2.4334   -1.4870   11.6759 C   0  0  0  0  0  0  0  0  0  0  0  0
    1.1809   -1.6321   11.0809 C   0  0  0  0  0  0  0  0  0  0  0  0
    0.4612   -0.5009   10.6942 C   0  0  0  0  0  0  0  0  0  0  0  0
   -0.7972   -0.6996   10.1012 N   0  0  0  0  0  0  0  0  0  0  0  0
   -1.6058    0.2760    9.5228 C   0  0  0  0  0  0  0  0  0  0  0  0
   -1.0853    1.2637    8.7779 N   0  0  0  0  0  0  0  0  0  0  0  0
   -1.9441    2.1466    8.2395 C   0  0  0  0  0  0  0  0  0  0  0  0
   -3.3003    2.0621    8.4035 C   0  0  0  0  0  0  0  0  0  0  0  0
   -4.1222    2.9677    7.8554 F   0  0  0  0  0  0  0  0  0  0  0  0
   -3.7762    1.0069    9.1632 C   0  0  0  0  0  0  0  0  0  0  0  0
   -5.1731    0.8708    9.3095 N   0  0  0  0  0  0  0  0  0  0  0  0
   -5.9034   -0.0999    9.9896 C   0  0  0  0  0  0  0  0  0  0  0  0
   -5.5227   -1.4316   10.0587 C   0  0  0  0  0  0  0  0  0  0  0  0
   -6.3286   -2.3385   10.7441 C   0  0  0  0  0  0  0  0  0  0  0  0
   -7.5127   -1.9017   11.3387 C   0  0  0  0  0  0  0  0  0  0  0  0
   -8.3205   -2.8392   12.0573 C   0  0  0  0  0  0  0  0  0  0  0  0
   -8.9713   -3.6027   12.6407 N   0  0  0  0  0  0  0  0  0  0  0  0
   -7.8580   -0.5553   11.2075 C   0  0  0  0  0  0  0  0  0  0  0  0
   -9.1158    0.0267   11.8358 C   0  0  0  0  0  0  0  0  0  0  0  0
   -8.7766    0.6882   13.1722 C   0  0  0  0  0  0  0  0  0  0  0  0
   -9.8085    1.0263   10.9031 C   0  0  0  0  0  0  0  0  0  0  0  0
   -7.0577    0.3291   10.5458 N   0  0  0  0  0  0  0  0  0  0  0  0
   -2.9301    0.1034    9.7050 N   0  0  0  0  0  0  0  0  0  0  0  0
    0.9567    0.7374   10.8911 N   0  0  0  0  0  0  0  0  0  0  0  0
    2.1779    0.8582   11.4620 C   0  0  0  0  0  0  0  0  0  0  0  0
    5.6211   -0.2075   10.4779 C   0  0  0  0  0  0  0  0  0  0  0  0
    7.0795   -0.3676   10.0009 C   0  0  0  0  0  0  0  0  0  0  0  0
   10.3854    1.2790   12.0678 H   0  0  0  0  0  0  0  0  0  0  0  0
   10.1899    2.0652   10.4898 H   0  0  0  0  0  0  0  0  0  0  0  0
   11.4127    0.8059   10.7118 H   0  0  0  0  0  0  0  0  0  0  0  0
    9.6258   -0.9102   11.0515 H   0  0  0  0  0  0  0  0  0  0  0  0
    9.5491   -0.1149    9.4799 H   0  0  0  0  0  0  0  0  0  0  0  0
    7.1810    1.4151   12.4520 H   0  0  0  0  0  0  0  0  0  0  0  0
    8.5181    0.3738   12.8845 H   0  0  0  0  0  0  0  0  0  0  0  0
    7.1478   -1.6364   12.5189 H   0  0  0  0  0  0  0  0  0  0  0  0
    6.4339   -0.5913   13.7160 H   0  0  0  0  0  0  0  0  0  0  0  0
    4.2044   -0.3502   13.5535 H   0  0  0  0  0  0  0  0  0  0  0  0
    4.5345    1.0767   12.5838 H   0  0  0  0  0  0  0  0  0  0  0  0
    3.0018   -2.3662   11.9695 H   0  0  0  0  0  0  0  0  0  0  0  0
    0.7804   -2.6257   10.9088 H   0  0  0  0  0  0  0  0  0  0  0  0
   -1.3933   -1.2781   10.6750 H   0  0  0  0  0  0  0  0  0  0  0  0
   -1.4981    2.9443    7.6567 H   0  0  0  0  0  0  0  0  0  0  0  0
   -5.6397    1.7641    9.4320 H   0  0  0  0  0  0  0  0  0  0  0  0
   -4.6132   -1.7765    9.5787 H   0  0  0  0  0  0  0  0  0  0  0  0
   -6.0244   -3.3812   10.8067 H   0  0  0  0  0  0  0  0  0  0  0  0
   -9.8432   -0.7720   12.0205 H   0  0  0  0  0  0  0  0  0  0  0  0
   -8.3214   -0.0301   13.8632 H   0  0  0  0  0  0  0  0  0  0  0  0
   -8.0713    1.5172   13.0438 H   0  0  0  0  0  0  0  0  0  0  0  0
   -9.6794    1.0846   13.6489 H   0  0  0  0  0  0  0  0  0  0  0  0
   -9.1878    1.9095   10.7148 H   0  0  0  0  0  0  0  0  0  0  0  0
  -10.0376    0.5646    9.9361 H   0  0  0  0  0  0  0  0  0  0  0  0
  -10.7510    1.3715   11.3420 H   0  0  0  0  0  0  0  0  0  0  0  0
    2.5152    1.8846   11.5795 H   0  0  0  0  0  0  0  0  0  0  0  0
    5.3593    0.8571   10.4029 H   0  0  0  0  0  0  0  0  0  0  0  0
    4.9632   -0.7506    9.7896 H   0  0  0  0  0  0  0  0  0  0  0  0
    7.3535   -1.4309   10.0378 H   0  0  0  0  0  0  0  0  0  0  0  0
    7.1437   -0.0532    8.9524 H   0  0  0  0  0  0  0  0  0  0  0  0
    3.4592   -1.4546    1.6280 B   0  0  0  0  0  0  0  0  0  0  0  0
    3.4564    1.1299    0.9400 N   0  0  0  0  0  0  0  0  0  0  0  0
    2.5399    2.3625   -1.2610 B   0  0  0  0  0  0  0  0  0  0  0  0
    2.2931   -0.6416   -2.7306 N   0  0  0  0  0  0  0  0  0  0  0  0
    0.6905   -3.5611    2.7027 B   0  0  0  0  0  0  0  0  0  0  0  0
   -2.9397   -2.6548    1.7095 N   0  0  0  0  0  0  0  0  0  0  0  0
   -1.0382    4.0851    1.8312 B   0  0  0  0  0  0  0  0  0  0  0  0
   -0.6193    0.0177   -3.9419 N   0  0  0  0  0  0  0  0  0  0  0  0
   -0.4737    1.4453   -4.0917 B   0  0  0  0  0  0  0  0  0  0  0  0
    1.2096   -3.7868   -1.7394 N   0  0  0  0  0  0  0  0  0  0  0  0
   -3.8445    2.2094   -0.4937 B   0  0  0  0  0  0  0  0  0  0  0  0
   -2.7729    2.7636   -1.2118 N   0  0  0  0  0  0  0  0  0  0  0  0
    1.4057    0.8181   -4.8893 B   0  0  0  0  0  0  0  0  0  0  0  0
   -0.2358    3.3642    2.8335 N   0  0  0  0  0  0  0  0  0  0  0  0
    0.8983   -2.8798   -2.8138 B   0  0  0  0  0  0  0  0  0  0  0  0
   -0.4918    3.7666   -1.0101 N   0  0  0  0  0  0  0  0  0  0  0  0
   -0.8060    2.1823    3.2819 B   0  0  0  0  0  0  0  0  0  0  0  0
    1.6561   -1.2744    3.5036 N   0  0  0  0  0  0  0  0  0  0  0  0
   -0.2485    3.4699   -2.3799 B   0  0  0  0  0  0  0  0  0  0  0  0
    1.3087    0.0689    3.8170 N   0  0  0  0  0  0  0  0  0  0  0  0
   -1.5974   -0.5599   -3.0847 B   0  0  0  0  0  0  0  0  0  0  0  0
   -3.8325    1.7768    0.8316 N   0  0  0  0  0  0  0  0  0  0  0  0
    0.3376    4.4960    1.1839 B   0  0  0  0  0  0  0  0  0  0  0  0
    0.0433   -0.0140    4.4567 N   0  0  0  0  0  0  0  0  0  0  0  0
   -2.7088    2.2268    1.6012 B   0  0  0  0  0  0  0  0  0  0  0  0
    3.7727   -0.1326   -0.7655 N   0  0  0  0  0  0  0  0  0  0  0  0
   -2.2534   -3.6394    1.0085 B   0  0  0  0  0  0  0  0  0  0  0  0
    1.0558    3.7334    2.2357 N   0  0  0  0  0  0  0  0  0  0  0  0
   -1.8256   -0.7775    3.2198 B   0  0  0  0  0  0  0  0  0  0  0  0
   -2.4368   -3.6019   -0.4508 N   0  0  0  0  0  0  0  0  0  0  0  0
    3.0187   -1.0737   -1.5028 B   0  0  0  0  0  0  0  0  0  0  0  0
   -3.1580   -1.2526   -0.3843 N   0  0  0  0  0  0  0  0  0  0  0  0
    2.0347    2.9223    1.5617 B   0  0  0  0  0  0  0  0  0  0  0  0
   -0.5074   -2.9001   -2.4328 N   0  0  0  0  0  0  0  0  0  0  0  0
   -1.6735   -2.1129   -2.4916 B   0  0  0  0  0  0  0  0  0  0  0  0
    0.5901    3.9646   -0.1102 N   0  0  0  0  0  0  0  0  0  0  0  0
    1.0903    2.9596   -3.1825 B   0  0  0  0  0  0  0  0  0  0  0  0
    0.0774   -4.3592    1.7213 N   0  0  0  0  0  0  0  0  0  0  0  0
   -1.7840    3.4524   -0.4082 B   0  0  0  0  0  0  0  0  0  0  0  0
   -2.0135    3.4185    1.0316 N   0  0  0  0  0  0  0  0  0  0  0  0
    1.4659   -4.2121    1.4991 B   0  0  0  0  0  0  0  0  0  0  0  0
   -0.7980    1.0642    4.1946 N   0  0  0  0  0  0  0  0  0  0  0  0
   -2.6662   -2.4021   -1.1753 B   0  0  0  0  0  0  0  0  0  0  0  0
   -1.0744   -4.4843    0.9912 N   0  0  0  0  0  0  0  0  0  0  0  0
   -2.5037    0.4914   -2.1091 B   0  0  0  0  0  0  0  0  0  0  0  0
    2.3527   -3.8873    0.4531 N   0  0  0  0  0  0  0  0  0  0  0  0
    3.9123   -0.2024    0.7259 B   0  0  0  0  0  0  0  0  0  0  0  0
    1.9285    1.9570   -2.4651 N   0  0  0  0  0  0  0  0  0  0  0  0
    1.0012    2.2544   -4.6225 B   0  0  0  0  0  0  0  0  0  0  0  0
   -4.1860    0.8290   -0.3475 N   0  0  0  0  0  0  0  0  0  0  0  0
   -1.3389    2.4537   -3.1149 B   0  0  0  0  0  0  0  0  0  0  0  0
   -2.3596    1.9326   -2.3058 N   0  0  0  0  0  0  0  0  0  0  0  0
    3.0731   -2.6455    0.6011 B   0  0  0  0  0  0  0  0  0  0  0  0
    2.3352   -3.6737   -0.9709 N   0  0  0  0  0  0  0  0  0  0  0  0
    2.2179    0.5458    2.8084 B   0  0  0  0  0  0  0  0  0  0  0  0
   -2.0264    0.6119    3.6015 N   0  0  0  0  0  0  0  0  0  0  0  0
   -1.1017   -4.1838   -0.4410 B   0  0  0  0  0  0  0  0  0  0  0  0
   -3.2181    0.0417   -0.9586 N   0  0  0  0  0  0  0  0  0  0  0  0
    3.4478    1.2586   -0.5141 B   0  0  0  0  0  0  0  0  0  0  0  0
    2.5821    1.6330    1.9365 N   0  0  0  0  0  0  0  0  0  0  0  0
    1.4721   -1.5550   -3.5156 B   0  0  0  0  0  0  0  0  0  0  0  0
   -2.1026    1.7542    2.7608 N   0  0  0  0  0  0  0  0  0  0  0  0
    2.0408    0.7119   -3.2115 B   0  0  0  0  0  0  0  0  0  0  0  0
   -2.7209   -1.3417    2.3206 N   0  0  0  0  0  0  0  0  0  0  0  0
    0.6586   -0.5389   -4.4869 B   0  0  0  0  0  0  0  0  0  0  0  0
   -0.1687   -3.7594   -1.3565 N   0  0  0  0  0  0  0  0  0  0  0  0
    0.4856   -2.1056    3.4338 B   0  0  0  0  0  0  0  0  0  0  0  0
   -0.5873   -1.2050    3.8245 N   0  0  0  0  0  0  0  0  0  0  0  0
   -3.2244   -1.4514    1.0003 B   0  0  0  0  0  0  0  0  0  0  0  0
    2.6713   -0.8555    2.6211 N   0  0  0  0  0  0  0  0  0  0  0  0
    1.8786    3.3393   -0.1064 B   0  0  0  0  0  0  0  0  0  0  0  0
    2.8769   -2.3318   -0.7936 N   0  0  0  0  0  0  0  0  0  0  0  0
  1  2  1  0  0  0  0
  2  3  1  0  0  0  0
  3  4  1  0  0  0  0
  4  5  1  0  0  0  0
  5  6  1  0  0  0  0
  6  7  1  0  0  0  0
  7  8  1  0  0  0  0
  8  9  4  0  0  0  0
  9 10  4  0  0  0  0
 10 11  4  0  0  0  0
 11 12  1  0  0  0  0
 12 13  1  0  0  0  0
 13 14  4  0  0  0  0
 14 15  4  0  0  0  0
 15 16  4  0  0  0  0
 16 17  1  0  0  0  0
 16 18  4  0  0  0  0
 18 19  1  0  0  0  0
 19 20  1  0  0  0  0
 20 21  4  0  0  0  0
 21 22  4  0  0  0  0
 22 23  4  0  0  0  0
 23 24  1  0  0  0  0
 24 25  3  0  0  0  0
 23 26  4  0  0  0  0
 26 27  1  0  0  0  0
 27 28  1  0  0  0  0
 27 29  1  0  0  0  0
 20 30  4  0  0  0  0
 26 30  4  0  0  0  0
 13 31  4  0  0  0  0
 18 31  4  0  0  0  0
 11 32  4  0  0  0  0
  8 33  4  0  0  0  0
 32 33  4  0  0  0  0
  6 34  1  0  0  0  0
  3 35  1  0  0  0  0
 34 35  1  0  0  0  0
  1 36  1  0  0  0  0
  1 37  1  0  0  0  0
  1 38  1  0  0  0  0
  2 39  1  0  0  0  0
  2 40  1  0  0  0  0
  4 41  1  0  0  0  0
  4 42  1  0  0  0  0
  5 43  1  0  0  0  0
  5 44  1  0  0  0  0
  7 45  1  0  0  0  0
  7 46  1  0  0  0  0
  9 47  1  0  0  0  0
 10 48  1  0  0  0  0
 12 49  1  0  0  0  0
 15 50  1  0  0  0  0
 19 51  1  0  0  0  0
 21 52  1  0  0  0  0
 22 53  1  0  0  0  0
 27 54  1  0  0  0  0
 28 55  1  0  0  0  0
 28 56  1  0  0  0  0
 28 57  1  0  0  0  0
 29 58  1  0  0  0  0
 29 59  1  0  0  0  0
 29 60  1  0  0  0  0
 33 61  1  0  0  0  0
 34 62  1  0  0  0  0
 34 63  1  0  0  0  0
 35 64  1  0  0  0  0
 35 65  1  0  0  0  0
 73 74  1  0  0  0  0
 76 77  1  0  0  0  0
 72 79  1  0  0  0  0
 75 80  1  0  0  0  0
 79 82  1  0  0  0  0
 81 84  1  0  0  0  0
 83 85  1  0  0  0  0
 73 86  1  0  0  0  0
 76 87  1  0  0  0  0
 72 88  1  0  0  0  0
 85 89  1  0  0  0  0
 87 90  1  0  0  0  0
 71 92  1  0  0  0  0
 79 93  1  0  0  0  0
 88 93  1  0  0  0  0
 92 95  1  0  0  0  0
 69 96  1  0  0  0  0
 91 96  1  0  0  0  0
 93 98  1  0  0  0  0
 80 99  1  0  0  0  0
 86100  1  0  0  0  0
 99100  1  0  0  0  0
 81101  1  0  0  0  0
 88101  1  0  0  0  0
 84102  1  0  0  0  0
 70103  1  0  0  0  0
 77104  1  0  0  0  0
 81104  1  0  0  0  0
 72105  1  0  0  0  0
 90105  1  0  0  0  0
104105  1  0  0  0  0
 70106  1  0  0  0  0
103106  1  0  0  0  0
 82107  1  0  0  0  0
 89107  1  0  0  0  0
 95108  1  0  0  0  0
 97108  1  0  0  0  0
100108  1  0  0  0  0
 92109  1  0  0  0  0
103109  1  0  0  0  0
 86110  1  0  0  0  0
106111  1  0  0  0  0
 66112  1  0  0  0  0
 67112  1  0  0  0  0
 91112  1  0  0  0  0
 68113  1  0  0  0  0
102113  1  0  0  0  0
 74114  1  0  0  0  0
 78114  1  0  0  0  0
102114  1  0  0  0  0
 76115  1  0  0  0  0
 87115  1  0  0  0  0
 74116  1  0  0  0  0
 84116  1  0  0  0  0
 77117  1  0  0  0  0
110117  1  0  0  0  0
116117  1  0  0  0  0
 66118  1  0  0  0  0
111118  1  0  0  0  0
 75119  1  0  0  0  0
111119  1  0  0  0  0
 85120  1  0  0  0  0
 94121  1  0  0  0  0
107121  1  0  0  0  0
 95122  1  0  0  0  0
109122  1  0  0  0  0
 97123  1  0  0  0  0
110123  1  0  0  0  0
115123  1  0  0  0  0
 67124  1  0  0  0  0
 68124  1  0  0  0  0
 91124  1  0  0  0  0
 67125  1  0  0  0  0
 98125  1  0  0  0  0
120125  1  0  0  0  0
 69126  1  0  0  0  0
 80126  1  0  0  0  0
 82127  1  0  0  0  0
 90127  1  0  0  0  0
121127  1  0  0  0  0
 69128  1  0  0  0  0
 78128  1  0  0  0  0
113128  1  0  0  0  0
 71129  1  0  0  0  0
 94129  1  0  0  0  0
 73130  1  0  0  0  0
 78130  1  0  0  0  0
126130  1  0  0  0  0
 75131  1  0  0  0  0
 99131  1  0  0  0  0
122131  1  0  0  0  0
 70132  1  0  0  0  0
 83132  1  0  0  0  0
 89133  1  0  0  0  0
 94133  1  0  0  0  0
132133  1  0  0  0  0
 71134  1  0  0  0  0
 97134  1  0  0  0  0
129134  1  0  0  0  0
 66135  1  0  0  0  0
 83135  1  0  0  0  0
120135  1  0  0  0  0
 68136  1  0  0  0  0
 98136  1  0  0  0  0
101136  1  0  0  0  0
 96137  1  0  0  0  0
118137  1  0  0  0  0
119137  1  0  0  0  0
M  END
