 xtb: 6.7.1pre (5071a88)
          08312618353D

137115  0     0  0            999 V2000
   10.3978    1.1598    0.0149 C   0  0  0  0  0  0  0  0  0  0  0  0
    9.3996    0.0902   -0.4161 C   0  0  0  0  0  0  0  0  0  0  0  0
    8.0128    0.4993   -0.1699 N   0  0  0  0  0  0  0  0  0  0  0  0
    7.6405    0.4914    1.2599 C   0  0  0  0  0  0  0  0  0  0  0  0
    6.6451   -0.6195    1.6700 C   0  0  0  0  0  0  0  0  0  0  0  0
    5.3989   -0.6701    0.8794 N   0  0  0  0  0  0  0  0  0  0  0  0
    4.3049    0.0530    1.5469 C   0  0  0  0  0  0  0  0  0  0  0  0
    2.9607   -0.1635    0.8992 C   0  0  0  0  0  0  0  0  0  0  0  0
    2.4334   -1.4388    0.7038 C   0  0  0  0  0  0  0  0  0  0  0  0
    1.1809   -1.5839    0.1089 C   0  0  0  0  0  0  0  0  0  0  0  0
    0.4612   -0.4526   -0.2778 C   0  0  0  0  0  0  0  0  0  0  0  0
   -0.7972   -0.6514   -0.8708 N   0  0  0  0  0  0  0  0  0  0  0  0
   -1.6058    0.3242   -1.4493 C   0  0  0  0  0  0  0  0  0  0  0  0
   -1.0853    1.3119   -2.1941 N   0  0  0  0  0  0  0  0  0  0  0  0
   -1.9441    2.1948   -2.7325 C   0  0  0  0  0  0  0  0  0  0  0  0
   -3.3003    2.1104   -2.5685 C   0  0  0  0  0  0  0  0  0  0  0  0
   -4.1222    3.0160   -3.1166 F   0  0  0  0  0  0  0  0  0  0  0  0
   -3.7762    1.0551   -1.8089 C   0  0  0  0  0  0  0  0  0  0  0  0
   -5.1731    0.9190   -1.6626 N   0  0  0  0  0  0  0  0  0  0  0  0
   -5.9034   -0.0517   -0.9825 C   0  0  0  0  0  0  0  0  0  0  0  0
   -5.5227   -1.3834   -0.9134 C   0  0  0  0  0  0  0  0  0  0  0  0
   -6.3286   -2.2903   -0.2279 C   0  0  0  0  0  0  0  0  0  0  0  0
   -7.5127   -1.8534    0.3666 C   0  0  0  0  0  0  0  0  0  0  0  0
   -8.3205   -2.7910    1.0852 C   0  0  0  0  0  0  0  0  0  0  0  0
   -8.9713   -3.5545    1.6687 N   0  0  0  0  0  0  0  0  0  0  0  0
   -7.8580   -0.5071    0.2355 C   0  0  0  0  0  0  0  0  0  0  0  0
   -9.1158    0.0749    0.8638 C   0  0  0  0  0  0  0  0  0  0  0  0
   -8.7766    0.7364    2.2001 C   0  0  0  0  0  0  0  0  0  0  0  0
   -9.8085    1.0745   -0.0690 C   0  0  0  0  0  0  0  0  0  0  0  0
   -7.0577    0.3773   -0.4262 N   0  0  0  0  0  0  0  0  0  0  0  0
   -2.9301    0.1516   -1.2671 N   0  0  0  0  0  0  0  0  0  0  0  0
    0.9567    0.7856   -0.0810 N   0  0  0  0  0  0  0  0  0  0  0  0
    2.1779    0.9065    0.4899 C   0  0  0  0  0  0  0  0  0  0  0  0
    5.6211   -0.1593   -0.4941 C   0  0  0  0  0  0  0  0  0  0  0  0
    7.0795   -0.3193   -0.9712 C   0  0  0  0  0  0  0  0  0  0  0  0
   10.3854    1.3273    1.0957 H   0  0  0  0  0  0  0  0  0  0  0  0
   10.1899    2.1134   -0.4823 H   0  0  0  0  0  0  0  0  0  0  0  0
   11.4127    0.8541   -0.2602 H   0  0  0  0  0  0  0  0  0  0  0  0
    9.6258   -0.8620    0.0794 H   0  0  0  0  0  0  0  0  0  0  0  0
    9.5491   -0.0667   -1.4921 H   0  0  0  0  0  0  0  0  0  0  0  0
    7.1810    1.4633    1.4800 H   0  0  0  0  0  0  0  0  0  0  0  0
    8.5181    0.4220    1.9125 H   0  0  0  0  0  0  0  0  0  0  0  0
    7.1478   -1.5882    1.5469 H   0  0  0  0  0  0  0  0  0  0  0  0
    6.4339   -0.5431    2.7439 H   0  0  0  0  0  0  0  0  0  0  0  0
    4.2044   -0.3020    2.5814 H   0  0  0  0  0  0  0  0  0  0  0  0
    4.5345    1.1249    1.6117 H   0  0  0  0  0  0  0  0  0  0  0  0
    3.0018   -2.3180    0.9975 H   0  0  0  0  0  0  0  0  0  0  0  0
    0.7804   -2.5775   -0.0633 H   0  0  0  0  0  0  0  0  0  0  0  0
   -1.3933   -1.2299   -0.2970 H   0  0  0  0  0  0  0  0  0  0  0  0
   -1.4981    2.9925   -3.3154 H   0  0  0  0  0  0  0  0  0  0  0  0
   -5.6397    1.8124   -1.5401 H   0  0  0  0  0  0  0  0  0  0  0  0
   -4.6132   -1.7283   -1.3934 H   0  0  0  0  0  0  0  0  0  0  0  0
   -6.0244   -3.3330   -0.1654 H   0  0  0  0  0  0  0  0  0  0  0  0
   -9.8432   -0.7238    1.0484 H   0  0  0  0  0  0  0  0  0  0  0  0
   -8.3214    0.0181    2.8911 H   0  0  0  0  0  0  0  0  0  0  0  0
   -8.0713    1.5654    2.0717 H   0  0  0  0  0  0  0  0  0  0  0  0
   -9.6794    1.1329    2.6768 H   0  0  0  0  0  0  0  0  0  0  0  0
   -9.1878    1.9577   -0.2572 H   0  0  0  0  0  0  0  0  0  0  0  0
  -10.0376    0.6128   -1.0359 H   0  0  0  0  0  0  0  0  0  0  0  0
  -10.7510    1.4197    0.3699 H   0  0  0  0  0  0  0  0  0  0  0  0
    2.5152    1.9329    0.6075 H   0  0  0  0  0  0  0  0  0  0  0  0
    5.3593    0.9053   -0.5692 H   0  0  0  0  0  0  0  0  0  0  0  0
    4.9632   -0.7024   -1.1824 H   0  0  0  0  0  0  0  0  0  0  0  0
    7.3535   -1.3827   -0.9342 H   0  0  0  0  0  0  0  0  0  0  0  0
    7.1437   -0.0049   -2.0197 H   0  0  0  0  0  0  0  0  0  0  0  0
    2.1012    0.0000    3.3450 B   0  0  0  0  0  0  0  0  0  0  0  0
   -2.1012    0.0000    3.3450 B   0  0  0  0  0  0  0  0  0  0  0  0
    0.0000    2.1012    3.3450 B   0  0  0  0  0  0  0  0  0  0  0  0
    0.0000   -2.1012    3.3450 B   0  0  0  0  0  0  0  0  0  0  0  0
    3.3450    2.1012    0.0000 B   0  0  0  0  0  0  0  0  0  0  0  0
    3.3450   -2.1012    0.0000 B   0  0  0  0  0  0  0  0  0  0  0  0
    3.3450    0.0000    2.1012 B   0  0  0  0  0  0  0  0  0  0  0  0
    3.3450    0.0000   -2.1012 B   0  0  0  0  0  0  0  0  0  0  0  0
   -3.3450    2.1012    0.0000 B   0  0  0  0  0  0  0  0  0  0  0  0
   -3.3450   -2.1012    0.0000 B   0  0  0  0  0  0  0  0  0  0  0  0
   -3.3450    0.0000    2.1012 B   0  0  0  0  0  0  0  0  0  0  0  0
   -3.3450    0.0000   -2.1012 B   0  0  0  0  0  0  0  0  0  0  0  0
    2.1012    0.0000   -3.3450 B   0  0  0  0  0  0  0  0  0  0  0  0
   -2.1012    0.0000   -3.3450 B   0  0  0  0  0  0  0  0  0  0  0  0
    0.0000    2.1012   -3.3450 B   0  0  0  0  0  0  0  0  0  0  0  0
    0.0000   -2.1012   -3.3450 B   0  0  0  0  0  0  0  0  0  0  0  0
    0.0000    3.3450    2.1012 B   0  0  0  0  0  0  0  0  0  0  0  0
    0.0000    3.3450   -2.1012 B   0  0  0  0  0  0  0  0  0  0  0  0
    0.0000   -3.3450    2.1012 B   0  0  0  0  0  0  0  0  0  0  0  0
    0.0000   -3.3450   -2.1012 B   0  0  0  0  0  0  0  0  0  0  0  0
    2.1012    3.3450    0.0000 B   0  0  0  0  0  0  0  0  0  0  0  0
   -2.1012    3.3450    0.0000 B   0  0  0  0  0  0  0  0  0  0  0  0
    2.1012   -3.3450    0.0000 B   0  0  0  0  0  0  0  0  0  0  0  0
   -2.1012   -3.3450    0.0000 B   0  0  0  0  0  0  0  0  0  0  0  0
    1.4800    1.4800    3.5800 B   0  0  0  0  0  0  0  0  0  0  0  0
   -1.4800    1.4800    3.5800 B   0  0  0  0  0  0  0  0  0  0  0  0
    1.4800   -1.4800    3.5800 B   0  0  0  0  0  0  0  0  0  0  0  0
   -1.4800   -1.4800    3.5800 B   0  0  0  0  0  0  0  0  0  0  0  0
    3.5800    1.4800    1.4800 B   0  0  0  0  0  0  0  0  0  0  0  0
    3.5800   -1.4800    1.4800 B   0  0  0  0  0  0  0  0  0  0  0  0
    3.5800    1.4800   -1.4800 B   0  0  0  0  0  0  0  0  0  0  0  0
    3.5800   -1.4800   -1.4800 B   0  0  0  0  0  0  0  0  0  0  0  0
   -3.5800    1.4800    1.4800 B   0  0  0  0  0  0  0  0  0  0  0  0
   -3.5800   -1.4800    1.4800 B   0  0  0  0  0  0  0  0  0  0  0  0
   -3.5800    1.4800   -1.4800 B   0  0  0  0  0  0  0  0  0  0  0  0
   -3.5800   -1.4800   -1.4800 B   0  0  0  0  0  0  0  0  0  0  0  0
    2.1012    0.0000    3.9200 N   0  0  0  0  0  0  0  0  0  0  0  0
   -2.1012    0.0000    3.9200 N   0  0  0  0  0  0  0  0  0  0  0  0
    0.0000    2.1012    3.9200 N   0  0  0  0  0  0  0  0  0  0  0  0
    0.0000   -2.1012    3.9200 N   0  0  0  0  0  0  0  0  0  0  0  0
    3.9200    2.1012    0.0000 N   0  0  0  0  0  0  0  0  0  0  0  0
    3.9200   -2.1012    0.0000 N   0  0  0  0  0  0  0  0  0  0  0  0
    3.9200    0.0000    2.1012 N   0  0  0  0  0  0  0  0  0  0  0  0
    3.9200    0.0000   -2.1012 N   0  0  0  0  0  0  0  0  0  0  0  0
   -3.9200    2.1012    0.0000 N   0  0  0  0  0  0  0  0  0  0  0  0
   -3.9200   -2.1012    0.0000 N   0  0  0  0  0  0  0  0  0  0  0  0
   -3.9200    0.0000    2.1012 N   0  0  0  0  0  0  0  0  0  0  0  0
   -3.9200    0.0000   -2.1012 N   0  0  0  0  0  0  0  0  0  0  0  0
    2.1012    0.0000   -3.9200 N   0  0  0  0  0  0  0  0  0  0  0  0
   -2.1012    0.0000   -3.9200 N   0  0  0  0  0  0  0  0  0  0  0  0
    0.0000    2.1012   -3.9200 N   0  0  0  0  0  0  0  0  0  0  0  0
    0.0000   -2.1012   -3.9200 N   0  0  0  0  0  0  0  0  0  0  0  0
    0.0000    3.9200    2.1012 N   0  0  0  0  0  0  0  0  0  0  0  0
    0.0000    3.9200   -2.1012 N   0  0  0  0  0  0  0  0  0  0  0  0
    0.0000   -3.9200    2.1012 N   0  0  0  0  0  0  0  0  0  0  0  0
    0.0000   -3.9200   -2.1012 N   0  0  0  0  0  0  0  0  0  0  0  0
    2.1012    3.9200    0.0000 N   0  0  0  0  0  0  0  0  0  0  0  0
   -2.1012    3.9200    0.0000 N   0  0  0  0  0  0  0  0  0  0  0  0
    2.1012   -3.9200    0.0000 N   0  0  0  0  0  0  0  0  0  0  0  0
   -2.1012   -3.9200    0.0000 N   0  0  0  0  0  0  0  0  0  0  0  0
    1.4800    1.4800    4.2200 N   0  0  0  0  0  0  0  0  0  0  0  0
   -1.4800    1.4800    4.2200 N   0  0  0  0  0  0  0  0  0  0  0  0
    1.4800   -1.4800    4.2200 N   0  0  0  0  0  0  0  0  0  0  0  0
   -1.4800   -1.4800    4.2200 N   0  0  0  0  0  0  0  0  0  0  0  0
    4.2200    1.4800    1.4800 N   0  0  0  0  0  0  0  0  0  0  0  0
    4.2200   -1.4800    1.4800 N   0  0  0  0  0  0  0  0  0  0  0  0
    4.2200    1.4800   -1.4800 N   0  0  0  0  0  0  0  0  0  0  0  0
    4.2200   -1.4800   -1.4800 N   0  0  0  0  0  0  0  0  0  0  0  0
   -4.2200    1.4800    1.4800 N   0  0  0  0  0  0  0  0  0  0  0  0
   -4.2200   -1.4800    1.4800 N   0  0  0  0  0  0  0  0  0  0  0  0
   -4.2200    1.4800   -1.4800 N   0  0  0  0  0  0  0  0  0  0  0  0
   -4.2200   -1.4800   -1.4800 N   0  0  0  0  0  0  0  0  0  0  0  0
  1  2  1  0  0  0  0
  2  3  1  0  0  0  0
  3  4  1  0  0  0  0
  4  5  1  0  0  0  0
  5  6  1  0  0  0  0
  6  7  1  0  0  0  0
  7  8  1  0  0  0  0
  8  9  1  0  0  0  0
  9 10  1  0  0  0  0
 10 11  4  0  0  0  0
 11 12  1  0  0  0  0
 12 13  1  0  0  0  0
 13 14  4  0  0  0  0
 14 15  4  0  0  0  0
 15 16  1  0  0  0  0
 16 17  1  0  0  0  0
 16 18  1  0  0  0  0
 19 20  1  0  0  0  0
 20 21  4  0  0  0  0
 21 22  4  0  0  0  0
 22 23  1  0  0  0  0
 23 24  1  0  0  0  0
 24 25  3  0  0  0  0
 23 26  4  0  0  0  0
 26 27  1  0  0  0  0
 27 28  1  0  0  0  0
 27 29  1  0  0  0  0
 20 30  1  0  0  0  0
 26 30  4  0  0  0  0
 13 31  1  0  0  0  0
 11 32  4  0  0  0  0
  8 33  1  0  0  0  0
 32 33  1  0  0  0  0
  6 34  1  0  0  0  0
  3 35  1  0  0  0  0
 34 35  1  0  0  0  0
  1 36  1  0  0  0  0
  1 37  1  0  0  0  0
  1 38  1  0  0  0  0
  2 39  1  0  0  0  0
  2 40  1  0  0  0  0
  4 41  1  0  0  0  0
  4 42  1  0  0  0  0
  5 43  1  0  0  0  0
  5 44  1  0  0  0  0
  9 47  1  0  0  0  0
 10 48  1  0  0  0  0
 12 49  1  0  0  0  0
 15 50  1  0  0  0  0
 19 51  1  0  0  0  0
 22 53  1  0  0  0  0
 27 54  1  0  0  0  0
 28 55  1  0  0  0  0
 28 56  1  0  0  0  0
 28 57  1  0  0  0  0
 29 58  1  0  0  0  0
 29 59  1  0  0  0  0
 29 60  1  0  0  0  0
 33 61  1  0  0  0  0
 34 62  1  0  0  0  0
 34 63  1  0  0  0  0
 35 64  1  0  0  0  0
 35 65  1  0  0  0  0
  9 71  1  0  0  0  0
  8 72  1  0  0  0  0
 66 72  1  0  0  0  0
 31 77  1  0  0  0  0
  9 95  1  0  0  0  0
 16100  1  0  0  0  0
 18100  1  0  0  0  0
 66102  3  0  0  0  0
 67103  3  0  0  0  0
 68104  3  0  0  0  0
 69105  3  0  0  0  0
 70106  3  0  0  0  0
 71107  3  0  0  0  0
  7108  2  0  0  0  0
 45108  1  0  0  0  0
 72108  2  0  0  0  0
 73109  3  0  0  0  0
 74110  3  0  0  0  0
 75111  3  0  0  0  0
 76112  3  0  0  0  0
 18113  1  0  0  0  0
 31113  1  0  0  0  0
 77113  2  0  0  0  0
 78114  3  0  0  0  0
 79115  3  0  0  0  0
 80116  3  0  0  0  0
 81117  3  0  0  0  0
 82118  3  0  0  0  0
 83119  3  0  0  0  0
 84120  3  0  0  0  0
 85121  3  0  0  0  0
 86122  3  0  0  0  0
 87123  3  0  0  0  0
 88124  3  0  0  0  0
 89125  3  0  0  0  0
 90126  3  0  0  0  0
 91127  3  0  0  0  0
 92128  3  0  0  0  0
 93129  3  0  0  0  0
 46130  1  0  0  0  0
 94130  2  0  0  0  0
 95131  3  0  0  0  0
 96132  3  0  0  0  0
 97133  3  0  0  0  0
 98134  3  0  0  0  0
 99135  3  0  0  0  0
 18136  4  0  0  0  0
 19136  1  0  0  0  0
100136  1  0  0  0  0
 21137  1  0  0  0  0
 52137  1  0  0  0  0
101137  2  0  0  0  0
M  END
